# CIF file
# This is a cif file prepared for use with the openmaterialsdb.se
#
# The cif file was imported from the Crystallography Open Database (COD)
# http://www.crystallography.net/
# based on data placed in the public domain by the contributors.
#
# The original file in cod had 
#COD-MD5: 229eb7210e998ce8f901c039764553c8
#
# It was then processed with the FINDSYM tool by
# Harold T. Stokes, Branton J. Campbell, Dorian M. Hatch
# Brigham Young University, Provo, Utah, USA
# which was used to update the structure information.
#
# The original header in COD and relevant COD data follows:
#------------------------------------------------------------------------------
#$Date: 2014-07-11 17:31:04 +0000 (Fri, 11 Jul 2014) $
#$Revision: 120073 $
#$URL: file:///home/coder/svn-repositories/cod/cif/4/00/13/4001329.cif $
#------------------------------------------------------------------------------
data_4001329
loop_
_publ_author_name
'Henderson, Stuart J.'
'Shebanova, Olga'
'Hector, Andrew L.'
'McMillan, Paul F.'
'Weller, Mark T.'
_publ_section_title
;
 Structural Variations in Pyrochlore-Structured Bi2Hf2O7, Bi2Ti2O7and
 Bi2Hf2-xTixO7Solid Solutions as a Function of Composition and Temperature
 by Neutron and X-ray Diffraction and Raman Spectroscopy
;
_journal_issue                   7
_journal_name_full               'Chemistry of Materials'
_journal_page_first              1712
_journal_volume                  19
_journal_year                    2007
_chemical_name_systematic        ' ?'
_computing_structure_refinement  GSAS
_diffrn_radiation_probe          neutron
_exptl_absorpt_correction_T_max  0.58889
_exptl_absorpt_correction_T_min  0.19670
_exptl_absorpt_process_details
;   GSAS Absorption/surface roughness correction: function number 1
 Linear absorption correction
Term =     0.32754    
Correction is refined.
;
_pd_block_id                     2006-11-29T13:30|600A|Stuart_Henderson|HRPD
_pd_calc_method                  'Rietveld Refinement'
_pd_instr_location               ' ?'
_pd_meas_2theta_fixed            168.56
_pd_meas_number_of_points        10988
_pd_phase_name                   600
_pd_proc_info_datetime           2006-11-29T13:30:35
_pd_proc_info_excluded_regions   ' ?'
_pd_proc_ls_background_function
;   GSAS Background function number 1 with 12 terms.
 Shifted Chebyshev function of 1st kind
      1:   7.555930E-02 2:  -1.186530E-03 3:   7.141660E-04 4:  -9.157660E-04
      5:  -1.764100E-03 6:   5.144530E-04 7:   9.219920E-04 8:  -4.158810E-04
      9:   1.245510E-0410:   6.655810E-0411:  -3.057890E-0412:   1.838370E-05
;
_pd_proc_ls_peak_cutoff          0.00100
_pd_proc_ls_pref_orient_corr
;   March-Dollase
 AXIS  1 Ratio=   0.98303  h= 0.000  k= 0.000  l= 1.000
 Prefered orientation correction range: Min=   0.97465, Max=   1.05269
;
_pd_proc_ls_profile_function
;
 TOF Profile function number 2 with  15 terms
 Profile coefficients for W.I.F. David
 function; a convolution of the
 Ikeda-Carpenter and Pseudo-Voight functions
  W.I.F. David, J. Appl. Cryst., 19,63-64,(1986)
  W.I.F. David - unpublished (1986).
 Peak tails are ignored  where the intensity is below 0.0010 times the peak
   Aniso. broadening axis   0.0   0.0   1.0
;
_pd_proc_ls_prof_R_factor        0.0412
_pd_proc_ls_prof_wR_expected     0.0392
_pd_proc_ls_prof_wR_factor       0.0485
_pd_proc_number_of_points        10988
_pd_spec_mounting                ' ?'
_refine_ls_goodness_of_fit_all   1.24
_refine_ls_matrix_type           full
_refine_ls_number_parameters     46
_refine_ls_number_restraints     0
_refine_ls_R_Fsqd_factor         0.09258
_refine_ls_shift/su_max          0.08
_refine_ls_shift/su_mean         0.00
_reflns_d_resolution_high        0.828
_reflns_d_resolution_low         2.432
_reflns_limit_h_max              9
_reflns_limit_h_min              0
_reflns_limit_k_max              6
_reflns_limit_k_min              0
_reflns_limit_l_max              13
_reflns_limit_l_min              0
_reflns_number_observed          192
_[local]_cod_data_source_file    cm062864asi20061203_081335.cif
_[local]_cod_data_source_block   600A_publ
_[local]_cod_chemical_formula_sum_orig 'Bi2.00 Hf2 O7'
_cod_depositor_comments
;
The following automatic conversions were performed:

'_geom_bond_publ_flag' value 'N' changed to 'n' according to
/home/saulius/struct/CIF-dictionaries/cif_core.dic dictionary named
'cif_core.dic' version 2.4.1 from 2010-06-29 (46
times).

'_geom_angle_publ_flag' value 'N' changed to 'n' according
to /home/saulius/struct/CIF-dictionaries/cif_core.dic dictionary
named 'cif_core.dic' version 2.4.1 from 2010-06-29 (66 times).

Automatic conversion script
Id: cif_fix_values 1715 2011-07-08 13:25:40Z adriana 
;
_cod_original_cell_volume        641.670(6)
_cod_database_code               4001329
_gsas_exptl_extinct_corr_t_min   1.00000
_gsas_exptl_extinct_corr_t_max   1.00000
loop_
_pd_meas_time_of_flight
_pd_proc_d_spacing
_pd_meas_intensity_total
_pd_proc_ls_weight
_pd_proc_intensity_bkg_calc
_pd_calc_intensity_total
39998.0 0.82790 0.078(4) 0.0 0.0766 .
40002.0 0.82798 0.081(4) 54641. 0.0766 0.0813
40006.0 0.82806 0.086(4) 52531. 0.0766 0.0819
40010.0 0.82815 0.090(5) 48737. 0.0766 0.0825
40014.0 0.82823 0.087(4) 51616. 0.0766 0.0832
40018.0 0.82831 0.087(4) 51888. 0.0766 0.0839
40022.0 0.82839 0.091(5) 49174. 0.0766 0.0846
40026.0 0.82848 0.095(5) 47723. 0.0766 0.0853
40030.0 0.82856 0.095(5) 47884. 0.0766 0.0860
40034.0 0.82864 0.093(5) 47969. 0.0766 0.0867
40038.0 0.82873 0.085(4) 54541. 0.0766 0.0874
40042.0 0.82881 0.088(4) 51371. 0.0766 0.0880
40046.0 0.82889 0.089(4) 51489. 0.0766 0.0884
40050.0 0.82897 0.087(4) 54114. 0.0766 0.0886
40054.0 0.82906 0.089(4) 52210. 0.0766 0.0887
40058.0 0.82914 0.091(4) 50533. 0.0766 0.0886
40062.0 0.82922 0.083(4) 56939. 0.0766 0.0885
40066.0 0.82930 0.078(4) 61932. 0.0767 0.0884
40070.0 0.82939 0.082(4) 58165. 0.0767 0.0883
40074.0 0.82947 0.084(4) 56055. 0.0767 0.0884
40078.0 0.82955 0.080(4) 60368. 0.0767 0.0885
40082.0 0.82964 0.085(4) 56055. 0.0767 0.0889
40086.0 0.82972 0.084(4) 57439. 0.0767 0.0894
40090.05 0.82980 0.081(4) 60661. 0.0767 0.0900
40094.1 0.82989 0.089(4) 52441. 0.0767 0.0908
40098.1 0.82997 0.088(4) 54057. 0.0767 0.0917
40102.1 0.83005 0.087(4) 54017. 0.0767 0.0927
40106.1 0.83014 0.091(4) 50541. 0.0767 0.0939
40110.1 0.83022 0.096(5) 47490. 0.0767 0.0951
40114.1 0.83030 0.095(5) 48509. 0.0767 0.0965
40118.1 0.83038 0.100(5) 45856. 0.0767 0.0979
40122.1 0.83047 0.102(5) 44222. 0.0767 0.0994
40126.15 0.83055 0.097(5) 48162. 0.0767 0.1009
40130.2 0.83063 0.104(5) 44018. 0.0767 0.1024
40134.2 0.83072 0.114(5) 38504. 0.0767 0.1040
40138.2 0.83080 0.106(5) 42562. 0.0767 0.1057
40142.2 0.83088 0.106(5) 42697. 0.0767 0.1074
40146.2 0.83097 0.113(5) 39416. 0.0768 0.1092
40150.2 0.83105 0.116(5) 38572. 0.0768 0.1111
40154.25 0.83113 0.116(5) 39166. 0.0768 0.1132
40158.3 0.83122 0.118(5) 38222. 0.0768 0.1154
40162.3 0.83130 0.114(5) 39711. 0.0768 0.1176
40166.3 0.83138 0.113(5) 39883. 0.0768 0.1198
40170.3 0.83146 0.116(5) 38592. 0.0768 0.1218
40174.3 0.83155 0.124(5) 35692. 0.0768 0.1233
40178.3 0.83163 0.125(5) 35943. 0.0768 0.1240
40182.35 0.83171 0.123(5) 37582. 0.0768 0.1238
40186.4 0.83180 0.127(5) 35147. 0.0768 0.1227
40190.4 0.83188 0.119(5) 38903. 0.0768 0.1207
40194.4 0.83196 0.124(5) 36217. 0.0768 0.1183
40198.4 0.83205 0.111(5) 42115. 0.0768 0.1155
40202.45 0.83213 0.103(5) 46363. 0.0768 0.1125
40206.5 0.83221 0.101(5) 46020. 0.0768 0.1095
40210.5 0.83230 0.108(5) 42779. 0.0768 0.1066
40214.5 0.83238 0.113(5) 41295. 0.0768 0.1039
40218.5 0.83246 0.106(5) 44081. 0.0768 0.1013
40222.55 0.83255 0.092(4) 52591. 0.0768 0.0990
40226.6 0.83263 0.096(5) 48364. 0.0768 0.0968
40230.6 0.83271 0.102(5) 44297. 0.0768 0.0949
40234.6 0.83280 0.090(4) 51107. 0.0769 0.0932
40238.65 0.83288 0.084(4) 57432. 0.0769 0.0917
40242.7 0.83296 0.092(4) 51127. 0.0769 0.0903
40246.7 0.83305 0.090(4) 51994. 0.0769 0.0891
40250.7 0.83313 0.085(4) 55770. 0.0769 0.0880
40254.75 0.83321 0.086(4) 56006. 0.0769 0.0870
40258.8 0.83330 0.086(4) 55839. 0.0769 0.0861
40262.8 0.83338 0.085(4) 56374. 0.0769 0.0853
40266.8 0.83346 0.080(4) 60588. 0.0769 0.0846
40270.85 0.83355 0.088(4) 54618. 0.0769 0.0840
40274.9 0.83363 0.084(4) 56744. 0.0769 0.0834
40278.9 0.83371 0.076(4) 63109. 0.0769 0.0828
40282.9 0.83380 0.077(4) 61936. 0.0769 0.0824
40286.95 0.83388 0.081(4) 60035. 0.0769 0.0819
40291.0 0.83396 0.084(4) 56772. 0.0769 0.0815
40295.0 0.83405 0.078(4) 61978. 0.0769 0.0812
40299.05 0.83413 0.078(4) 62606. 0.0769 0.0809
40303.1 0.83421 0.079(4) 60353. 0.0769 0.0806
40307.1 0.83430 0.073(4) 68522. 0.0769 0.0803
40311.15 0.83438 0.086(4) 57713. 0.0769 0.0801
40315.2 0.83446 0.080(4) 62319. 0.0769 0.0799
40319.2 0.83455 0.073(4) 67288. 0.0769 0.0797
40323.25 0.83463 0.074(4) 68268. 0.0769 0.0795
40327.3 0.83471 0.077(4) 62720. 0.0769 0.0793
40331.3 0.83480 0.072(4) 68821. 0.0770 0.0792
40335.35 0.83488 0.080(4) 60776. 0.0770 0.0791
40339.4 0.83497 0.079(4) 60782. 0.0770 0.0790
40343.4 0.83505 0.082(4) 57565. 0.0770 0.0789
40347.45 0.83513 0.083(4) 59446. 0.0770 0.0788
40351.5 0.83522 0.095(5) 48674. 0.0770 0.0787
40355.5 0.83530 0.086(4) 56035. 0.0770 0.0786
40359.55 0.83538 0.082(4) 60145. 0.0770 0.0785
40363.6 0.83547 0.084(4) 57643. 0.0770 0.0785
40367.6 0.83555 0.087(4) 55309. 0.0770 0.0784
40371.65 0.83563 0.084(4) 57937. 0.0770 0.0784
40375.7 0.83572 0.081(4) 59278. 0.0770 0.0783
40379.7 0.83580 0.080(4) 61060. 0.0770 0.0783
40383.75 0.83588 0.072(4) 68707. 0.0770 0.0783
40387.8 0.83597 0.077(4) 61971. 0.0770 0.0782
40391.85 0.83605 0.075(4) 65875. 0.0770 0.0782
40395.9 0.83613 0.076(4) 64610. 0.0770 0.0782
40399.9 0.83622 0.077(4) 61816. 0.0770 0.0782
40403.95 0.83630 0.074(4) 66805. 0.0770 0.0782
40408.0 0.83639 0.084(4) 56516. 0.0770 0.0782
40412.05 0.83647 0.071(4) 70918. 0.0770 0.0782
40416.1 0.83655 0.074(4) 65018. 0.0770 0.0783
40420.1 0.83664 0.083(4) 56638. 0.0770 0.0783
40424.15 0.83672 0.081(4) 60274. 0.0770 0.0783
40428.2 0.83680 0.084(4) 56400. 0.0770 0.0784
40432.25 0.83689 0.079(4) 62538. 0.0770 0.0785
40436.3 0.83697 0.079(4) 61273. 0.0771 0.0786
40440.35 0.83705 0.077(4) 63850. 0.0771 0.0787
40444.4 0.83714 0.077(4) 63010. 0.0771 0.0789
40448.4 0.83722 0.087(4) 54437. 0.0771 0.0791
40452.45 0.83731 0.081(4) 60719. 0.0771 0.0794
40456.5 0.83739 0.076(4) 65810. 0.0771 0.0797
40460.55 0.83747 0.080(4) 61480. 0.0771 0.0801
40464.6 0.83756 0.078(4) 62817. 0.0771 0.0806
40468.65 0.83764 0.080(4) 61381. 0.0771 0.0812
40472.7 0.83772 0.083(4) 57461. 0.0771 0.0819
40476.75 0.83781 0.079(4) 62875. 0.0771 0.0826
40480.8 0.83789 0.085(4) 56228. 0.0771 0.0833
40484.85 0.83798 0.082(4) 60547. 0.0771 0.0839
40488.9 0.83806 0.083(4) 59352. 0.0771 0.0845
40492.95 0.83814 0.078(4) 65248. 0.0771 0.0850
40497.0 0.83823 0.078(4) 64191. 0.0771 0.0854
40501.05 0.83831 0.082(4) 62616. 0.0771 0.0856
40505.1 0.83840 0.083(4) 60311. 0.0771 0.0857
40509.15 0.83848 0.085(4) 59862. 0.0771 0.0856
40513.2 0.83856 0.085(4) 57399. 0.0771 0.0854
40517.25 0.83865 0.075(4) 66203. 0.0771 0.0850
40521.3 0.83873 0.081(4) 60240. 0.0771 0.0846
40525.35 0.83881 0.083(4) 60812. 0.0771 0.0842
40529.4 0.83890 0.082(4) 59761. 0.0771 0.0838
40533.45 0.83898 0.080(4) 63125. 0.0771 0.0833
40537.5 0.83907 0.091(4) 52798. 0.0771 0.0829
40541.55 0.83915 0.086(4) 58132. 0.0771 0.0825
40545.6 0.83923 0.086(4) 56350. 0.0771 0.0820
40549.65 0.83932 0.081(4) 62036. 0.0771 0.0816
40553.75 0.83940 0.082(4) 60865. 0.0772 0.0813
40557.8 0.83949 0.082(4) 59275. 0.0772 0.0809
40561.85 0.83957 0.077(4) 66599. 0.0772 0.0806
40565.9 0.83965 0.083(4) 57967. 0.0772 0.0803
40569.95 0.83974 0.076(4) 65866. 0.0772 0.0800
40574.0 0.83982 0.083(4) 56744. 0.0772 0.0798
40578.05 0.83991 0.079(4) 61217. 0.0772 0.0796
40582.1 0.83999 0.085(4) 55313. 0.0772 0.0794
40586.15 0.84007 0.078(4) 63894. 0.0772 0.0792
40590.25 0.84016 0.086(4) 57456. 0.0772 0.0790
40594.3 0.84024 0.089(4) 55018. 0.0772 0.0789
40598.35 0.84033 0.085(4) 57581. 0.0772 0.0788
40602.4 0.84041 0.083(4) 58229. 0.0772 0.0786
40606.45 0.84049 0.083(4) 59178. 0.0772 0.0785
40610.55 0.84058 0.076(4) 67050. 0.0772 0.0784
40614.6 0.84066 0.077(4) 62168. 0.0772 0.0784
40618.65 0.84075 0.081(4) 60227. 0.0772 0.0783
40622.75 0.84083 0.078(4) 64067. 0.0772 0.0782
40626.8 0.84091 0.078(4) 62078. 0.0772 0.0781
40630.85 0.84100 0.076(4) 65404. 0.0772 0.0781
40634.9 0.84108 0.075(4) 67990. 0.0772 0.0780
40638.95 0.84117 0.086(4) 56712. 0.0772 0.0780
40643.05 0.84125 0.085(4) 58555. 0.0772 0.0780
40647.1 0.84134 0.085(4) 57695. 0.0772 0.0779
40651.15 0.84142 0.079(4) 63507. 0.0772 0.0779
40655.25 0.84150 0.076(4) 65812. 0.0772 0.0779
40659.3 0.84159 0.080(4) 61243. 0.0772 0.0778
40663.35 0.84167 0.080(4) 63812. 0.0772 0.0778
40667.45 0.84176 0.082(4) 60601. 0.0772 0.0778
40671.5 0.84184 0.085(4) 57050. 0.0772 0.0778
40675.55 0.84192 0.078(4) 65970. 0.0772 0.0777
40679.65 0.84201 0.081(4) 63602. 0.0772 0.0777
40683.7 0.84209 0.085(4) 57853. 0.0772 0.0777
40687.75 0.84218 0.083(4) 60926. 0.0772 0.0777
40691.85 0.84226 0.084(4) 58699. 0.0773 0.0777
40695.9 0.84235 0.082(4) 60350. 0.0773 0.0777
40699.95 0.84243 0.079(4) 65411. 0.0773 0.0777
40704.05 0.84251 0.083(4) 59286. 0.0773 0.0777
40708.1 0.84260 0.083(4) 57528. 0.0773 0.0777
40712.15 0.84268 0.077(4) 64680. 0.0773 0.0777
40716.25 0.84277 0.077(4) 64865. 0.0773 0.0777
40720.35 0.84285 0.085(4) 56328. 0.0773 0.0777
40724.4 0.84294 0.081(4) 59935. 0.0773 0.0777
40728.45 0.84302 0.072(4) 71725. 0.0773 0.0777
40732.55 0.84310 0.079(4) 61686. 0.0773 0.0777
40736.65 0.84319 0.074(4) 68242. 0.0773 0.0777
40740.7 0.84327 0.076(4) 64750. 0.0773 0.0777
40744.75 0.84336 0.079(4) 62652. 0.0773 0.0777
40748.85 0.84344 0.082(4) 59307. 0.0773 0.0777
40752.9 0.84353 0.083(4) 57647. 0.0773 0.0777
40756.95 0.84361 0.090(4) 53458. 0.0773 0.0777
40761.05 0.84369 0.079(4) 63517. 0.0773 0.0777
40765.15 0.84378 0.078(4) 64286. 0.0773 0.0777
40769.25 0.84386 0.078(4) 64175. 0.0773 0.0777
40773.3 0.84395 0.086(4) 56676. 0.0773 0.0777
40777.35 0.84403 0.086(4) 57756. 0.0773 0.0777
40781.45 0.84412 0.079(4) 64265. 0.0773 0.0777
40785.55 0.84420 0.079(4) 64568. 0.0773 0.0777
40789.6 0.84429 0.073(4) 70011. 0.0773 0.0777
40793.65 0.84437 0.079(4) 63972. 0.0773 0.0777
40797.75 0.84445 0.082(4) 61501. 0.0773 0.0777
40801.85 0.84454 0.083(4) 61717. 0.0773 0.0777
40805.95 0.84462 0.081(4) 63455. 0.0773 0.0777
40810.0 0.84471 0.082(4) 61506. 0.0773 0.0777
40814.05 0.84479 0.071(4) 73963. 0.0773 0.0778
40818.15 0.84488 0.070(4) 73763. 0.0773 0.0778
40822.25 0.84496 0.076(4) 67087. 0.0773 0.0778
40826.35 0.84505 0.080(4) 64255. 0.0773 0.0778
40830.45 0.84513 0.080(4) 65048. 0.0773 0.0778
40834.5 0.84521 0.080(4) 63615. 0.0773 0.0778
40838.55 0.84530 0.075(4) 70532. 0.0773 0.0778
40842.65 0.84538 0.075(4) 69108. 0.0773 0.0778
40846.75 0.84547 0.077(4) 68165. 0.0773 0.0779
40850.85 0.84555 0.080(4) 64251. 0.0773 0.0779
40854.95 0.84564 0.084(4) 60406. 0.0774 0.0779
40859.0 0.84572 0.085(4) 59457. 0.0774 0.0779
40863.05 0.84581 0.088(4) 57725. 0.0774 0.0780
40867.15 0.84589 0.083(4) 61911. 0.0774 0.0780
40871.25 0.84598 0.081(4) 63871. 0.0774 0.0780
40875.35 0.84606 0.084(4) 62347. 0.0774 0.0780
40879.45 0.84615 0.079(4) 66258. 0.0774 0.0781
40883.55 0.84623 0.080(4) 65134. 0.0774 0.0781
40887.65 0.84632 0.080(4) 66084. 0.0774 0.0782
40891.75 0.84640 0.078(4) 67797. 0.0774 0.0782
40895.8 0.84648 0.078(4) 66117. 0.0774 0.0783
40899.85 0.84657 0.080(4) 63840. 0.0774 0.0784
40903.95 0.84665 0.085(4) 58996. 0.0774 0.0785
40908.05 0.84674 0.079(4) 66205. 0.0774 0.0786
40912.15 0.84682 0.080(4) 64935. 0.0774 0.0787
40916.25 0.84691 0.083(4) 60887. 0.0774 0.0789
40920.35 0.84699 0.079(4) 64753. 0.0774 0.0791
40924.45 0.84708 0.081(4) 63203. 0.0774 0.0793
40928.55 0.84716 0.084(4) 60435. 0.0774 0.0796
40932.65 0.84725 0.082(4) 62134. 0.0774 0.0799
40936.75 0.84733 0.087(4) 58565. 0.0774 0.0803
40940.85 0.84742 0.086(4) 60121. 0.0774 0.0807
40944.9 0.84750 0.084(4) 61266. 0.0774 0.0811
40948.95 0.84758 0.079(4) 66906. 0.0774 0.0815
40953.05 0.84767 0.081(4) 63720. 0.0774 0.0819
40957.15 0.84775 0.081(4) 64623. 0.0774 0.0823
40961.25 0.84784 0.080(4) 66137. 0.0774 0.0827
40965.35 0.84792 0.083(4) 62250. 0.0774 0.0831
40969.45 0.84801 0.080(4) 64855. 0.0774 0.0835
40973.55 0.84809 0.081(4) 62862. 0.0774 0.0840
40977.65 0.84818 0.081(4) 64599. 0.0774 0.0846
40981.75 0.84826 0.084(4) 60994. 0.0774 0.0852
40985.85 0.84835 0.078(4) 66153. 0.0774 0.0858
40989.95 0.84843 0.088(4) 56359. 0.0774 0.0865
40994.05 0.84852 0.087(4) 58639. 0.0774 0.0871
40998.15 0.84860 0.089(4) 57629. 0.0774 0.0877
41002.25 0.84869 0.091(4) 55679. 0.0774 0.0883
41006.35 0.84877 0.088(4) 57449. 0.0774 0.0888
41010.45 0.84886 0.087(4) 59680. 0.0774 0.0893
41014.55 0.84894 0.089(4) 58206. 0.0774 0.0896
41018.65 0.84903 0.095(4) 52375. 0.0774 0.0898
41022.75 0.84911 0.088(4) 58807. 0.0774 0.0898
41026.85 0.84920 0.092(4) 54964. 0.0774 0.0895
41030.95 0.84928 0.091(4) 55062. 0.0774 0.0891
41035.05 0.84937 0.095(4) 53892. 0.0774 0.0886
41039.15 0.84945 0.095(4) 54239. 0.0774 0.0879
41043.25 0.84954 0.091(4) 55760. 0.0774 0.0872
41047.35 0.84962 0.087(4) 59898. 0.0774 0.0865
41051.45 0.84971 0.082(4) 64808. 0.0774 0.0859
41055.55 0.84979 0.084(4) 62053. 0.0774 0.0852
41059.65 0.84988 0.081(4) 65216. 0.0774 0.0847
41063.8 0.84996 0.078(4) 70059. 0.0774 0.0842
41067.95 0.85005 0.085(4) 62465. 0.0774 0.0838
41072.05 0.85013 0.084(4) 64020. 0.0775 0.0834
41076.15 0.85022 0.086(4) 62649. 0.0775 0.0832
41080.25 0.85030 0.084(4) 64700. 0.0775 0.0831
41084.35 0.85039 0.082(4) 64687. 0.0775 0.0830
41088.45 0.85047 0.083(4) 64980. 0.0775 0.0830
41092.55 0.85056 0.080(4) 68640. 0.0775 0.0831
41096.65 0.85064 0.088(4) 59789. 0.0775 0.0833
41100.75 0.85073 0.091(4) 57659. 0.0775 0.0835
41104.85 0.85081 0.086(4) 61108. 0.0775 0.0838
41108.95 0.85090 0.082(4) 64886. 0.0775 0.0840
41113.1 0.85098 0.082(4) 65605. 0.0775 0.0843
41117.25 0.85107 0.089(4) 58635. 0.0775 0.0845
41121.35 0.85115 0.086(4) 61740. 0.0775 0.0847
41125.45 0.85124 0.081(4) 66230. 0.0775 0.0850
41129.55 0.85132 0.086(4) 60691. 0.0775 0.0853
41133.65 0.85141 0.089(4) 58067. 0.0775 0.0857
41137.75 0.85149 0.088(4) 59902. 0.0775 0.0861
41141.85 0.85158 0.085(4) 62038. 0.0775 0.0865
41146.0 0.85166 0.084(4) 62269. 0.0775 0.0869
41150.15 0.85175 0.088(4) 59015. 0.0775 0.0872
41154.25 0.85183 0.093(4) 55766. 0.0775 0.0874
41158.35 0.85192 0.093(4) 56651. 0.0775 0.0873
41162.45 0.85200 0.090(4) 57483. 0.0775 0.0871
41166.55 0.85209 0.086(4) 59929. 0.0775 0.0867
41170.7 0.85218 0.086(4) 62707. 0.0775 0.0862
41174.85 0.85226 0.089(4) 59515. 0.0775 0.0856
41178.95 0.85235 0.091(4) 58253. 0.0775 0.0850
41183.05 0.85243 0.091(4) 57588. 0.0775 0.0844
41187.15 0.85252 0.085(4) 62526. 0.0775 0.0838
41191.25 0.85260 0.085(4) 61892. 0.0775 0.0833
41195.4 0.85269 0.087(4) 61146. 0.0775 0.0828
41199.55 0.85277 0.094(4) 54529. 0.0775 0.0823
41203.65 0.85286 0.088(4) 57708. 0.0775 0.0819
41207.75 0.85294 0.081(4) 64254. 0.0775 0.0815
41211.85 0.85303 0.082(4) 62541. 0.0775 0.0811
41216.0 0.85311 0.083(4) 63365. 0.0775 0.0808
41220.15 0.85320 0.091(4) 55304. 0.0775 0.0806
41224.25 0.85328 0.082(4) 64566. 0.0775 0.0803
41228.35 0.85337 0.085(4) 60346. 0.0775 0.0801
41232.5 0.85345 0.078(4) 67769. 0.0775 0.0799
41236.65 0.85354 0.082(4) 62278. 0.0775 0.0797
41240.75 0.85363 0.087(4) 57602. 0.0775 0.0796
41244.85 0.85371 0.083(4) 62175. 0.0775 0.0794
41249.0 0.85380 0.082(4) 63705. 0.0775 0.0793
41253.15 0.85388 0.090(4) 56093. 0.0775 0.0792
41257.25 0.85397 0.091(4) 54247. 0.0775 0.0791
41261.35 0.85405 0.083(4) 61635. 0.0775 0.0790
41265.5 0.85414 0.081(4) 63743. 0.0775 0.0789
41269.65 0.85422 0.080(4) 63369. 0.0775 0.0788
41273.75 0.85431 0.077(4) 66817. 0.0775 0.0788
41277.85 0.85439 0.079(4) 63441. 0.0775 0.0787
41282.0 0.85448 0.080(4) 64965. 0.0775 0.0787
41286.15 0.85457 0.079(4) 65016. 0.0775 0.0786
41290.25 0.85465 0.084(4) 60839. 0.0775 0.0786
41294.4 0.85474 0.084(4) 62858. 0.0775 0.0786
41298.55 0.85482 0.086(4) 58125. 0.0775 0.0785
41302.65 0.85491 0.081(4) 62401. 0.0775 0.0785
41306.75 0.85499 0.073(4) 73412. 0.0775 0.0785
41310.9 0.85508 0.085(4) 61445. 0.0775 0.0785
41315.05 0.85516 0.087(4) 57237. 0.0775 0.0785
41319.15 0.85525 0.079(4) 64325. 0.0775 0.0785
41323.3 0.85533 0.078(4) 68508. 0.0775 0.0785
41327.45 0.85542 0.087(4) 58164. 0.0775 0.0785
41331.55 0.85550 0.077(4) 68152. 0.0775 0.0785
41335.7 0.85559 0.082(4) 63578. 0.0775 0.0785
41339.85 0.85568 0.081(4) 63986. 0.0775 0.0785
41343.95 0.85576 0.082(4) 63237. 0.0775 0.0785
41348.1 0.85585 0.080(4) 67168. 0.0775 0.0786
41352.25 0.85593 0.078(4) 66885. 0.0775 0.0786
41356.35 0.85602 0.076(4) 70565. 0.0775 0.0786
41360.5 0.85610 0.079(4) 68473. 0.0775 0.0787
41364.65 0.85619 0.082(4) 62607. 0.0775 0.0787
41368.8 0.85628 0.077(4) 70194. 0.0775 0.0787
41372.95 0.85636 0.082(4) 63685. 0.0775 0.0788
41377.05 0.85645 0.084(4) 63548. 0.0775 0.0789
41381.2 0.85653 0.086(4) 63075. 0.0775 0.0789
41385.35 0.85662 0.085(4) 62116. 0.0775 0.0790
41389.45 0.85670 0.075(4) 73631. 0.0775 0.0791
41393.6 0.85679 0.076(4) 72100. 0.0775 0.0792
41397.75 0.85688 0.076(4) 72571. 0.0775 0.0794
41401.9 0.85696 0.082(4) 66154. 0.0775 0.0796
41406.05 0.85705 0.082(4) 64604. 0.0775 0.0798
41410.15 0.85713 0.075(4) 72764. 0.0775 0.0801
41414.3 0.85722 0.080(4) 69065. 0.0775 0.0804
41418.45 0.85730 0.084(4) 63415. 0.0776 0.0809
41422.6 0.85739 0.078(4) 70896. 0.0776 0.0814
41426.75 0.85748 0.083(4) 63882. 0.0776 0.0820
41430.9 0.85756 0.086(4) 63410. 0.0776 0.0828
41435.05 0.85765 0.087(4) 62252. 0.0776 0.0837
41439.15 0.85773 0.092(4) 57339. 0.0776 0.0846
41443.3 0.85782 0.098(4) 54412. 0.0776 0.0857
41447.45 0.85790 0.096(4) 54989. 0.0776 0.0867
41451.6 0.85799 0.093(4) 58366. 0.0776 0.0878
41455.75 0.85808 0.105(5) 48806. 0.0776 0.0886
41459.9 0.85816 0.096(4) 55229. 0.0776 0.0893
41464.05 0.85825 0.093(4) 56609. 0.0776 0.0897
41468.2 0.85833 0.097(4) 55078. 0.0776 0.0900
41472.35 0.85842 0.096(4) 55601. 0.0776 0.0900
41476.5 0.85851 0.093(4) 57426. 0.0776 0.0900
41480.65 0.85859 0.091(4) 58624. 0.0776 0.0901
41484.75 0.85868 0.096(4) 55278. 0.0776 0.0903
41488.9 0.85876 0.090(4) 60411. 0.0776 0.0906
41493.05 0.85885 0.091(4) 57758. 0.0776 0.0912
41497.2 0.85893 0.088(4) 62926. 0.0776 0.0921
41501.35 0.85902 0.094(4) 56767. 0.0776 0.0934
41505.5 0.85911 0.090(4) 60644. 0.0776 0.0951
41509.65 0.85919 0.095(4) 55269. 0.0776 0.0971
41513.8 0.85928 0.093(4) 58118. 0.0776 0.0994
41518.0 0.85936 0.095(4) 57010. 0.0776 0.1020
41522.15 0.85945 0.100(4) 53768. 0.0776 0.1046
41526.3 0.85954 0.096(4) 58936. 0.0776 0.1069
41530.45 0.85962 0.106(4) 50363. 0.0776 0.1087
41534.6 0.85971 0.105(4) 51158. 0.0776 0.1099
41538.75 0.85979 0.108(4) 49600. 0.0776 0.1103
41542.9 0.85988 0.108(4) 50847. 0.0776 0.1099
41547.05 0.85997 0.109(4) 49793. 0.0776 0.1089
41551.2 0.86005 0.102(4) 54393. 0.0776 0.1073
41555.35 0.86014 0.096(4) 57140. 0.0776 0.1055
41559.5 0.86022 0.096(4) 57913. 0.0776 0.1034
41563.65 0.86031 0.095(4) 57371. 0.0776 0.1013
41567.8 0.86040 0.096(4) 58554. 0.0776 0.0992
41572.0 0.86048 0.097(4) 56631. 0.0776 0.0972
41576.15 0.86057 0.093(4) 58055. 0.0776 0.0954
41580.3 0.86065 0.086(4) 66662. 0.0776 0.0936
41584.45 0.86074 0.089(4) 62163. 0.0776 0.0921
41588.6 0.86083 0.090(4) 61426. 0.0776 0.0907
41592.75 0.86091 0.080(4) 69872. 0.0776 0.0894
41596.9 0.86100 0.083(4) 68931. 0.0776 0.0883
41601.1 0.86109 0.084(4) 68391. 0.0776 0.0872
41605.25 0.86117 0.083(4) 68098. 0.0776 0.0863
41609.4 0.86126 0.082(4) 71074. 0.0776 0.0855
41613.55 0.86134 0.093(4) 59862. 0.0776 0.0848
41617.7 0.86143 0.086(4) 67965. 0.0776 0.0841
41621.9 0.86152 0.081(4) 73171. 0.0776 0.0835
41626.05 0.86160 0.078(4) 73750. 0.0776 0.0830
41630.2 0.86169 0.077(4) 76311. 0.0776 0.0825
41634.4 0.86177 0.083(4) 68951. 0.0776 0.0821
41638.55 0.86186 0.080(4) 70949. 0.0776 0.0817
41642.7 0.86195 0.080(4) 71364. 0.0776 0.0814
41646.9 0.86203 0.080(4) 69686. 0.0776 0.0810
41651.05 0.86212 0.081(4) 68627. 0.0776 0.0808
41655.2 0.86221 0.075(4) 77961. 0.0776 0.0805
41659.35 0.86229 0.077(4) 73231. 0.0776 0.0803
41663.5 0.86238 0.076(4) 74934. 0.0776 0.0801
41667.7 0.86246 0.077(4) 72573. 0.0776 0.0799
41671.85 0.86255 0.078(4) 71748. 0.0776 0.0797
41676.0 0.86264 0.078(4) 73282. 0.0776 0.0795
41680.2 0.86272 0.0723(35) 82194. 0.07758 0.07939
41684.35 0.86281 0.077(4) 72281. 0.0776 0.0793
41688.5 0.86289 0.079(4) 72116. 0.0776 0.0792
41692.7 0.86298 0.075(4) 77226. 0.0776 0.0790
41696.9 0.86307 0.076(4) 73161. 0.0776 0.0789
41701.05 0.86315 0.082(4) 66588. 0.0776 0.0789
41705.2 0.86324 0.086(4) 64026. 0.0776 0.0788
41709.4 0.86333 0.085(4) 65431. 0.0776 0.0787
41713.55 0.86341 0.081(4) 67627. 0.0776 0.0786
41717.7 0.86350 0.074(4) 78004. 0.0776 0.0786
41721.9 0.86359 0.073(4) 77722. 0.0776 0.0785
41726.1 0.86367 0.076(4) 74177. 0.0776 0.0785
41730.25 0.86376 0.083(4) 65435. 0.0776 0.0784
41734.4 0.86384 0.078(4) 72398. 0.0776 0.0784
41738.6 0.86393 0.080(4) 69574. 0.0776 0.0783
41742.8 0.86402 0.073(4) 78144. 0.0776 0.0783
41746.95 0.86410 0.078(4) 69320. 0.0776 0.0783
41751.1 0.86419 0.079(4) 71338. 0.0776 0.0782
41755.3 0.86428 0.082(4) 68363. 0.0776 0.0782
41759.5 0.86436 0.078(4) 75080. 0.0776 0.0782
41763.65 0.86445 0.088(4) 61330. 0.0776 0.0782
41767.8 0.86454 0.081(4) 70447. 0.0776 0.0781
41772.0 0.86462 0.072(4) 80553. 0.0776 0.0781
41776.2 0.86471 0.079(4) 69947. 0.0776 0.0781
41780.35 0.86480 0.078(4) 71417. 0.0776 0.0781
41784.5 0.86488 0.079(4) 69088. 0.0776 0.0781
41788.7 0.86497 0.077(4) 72073. 0.0776 0.0780
41792.9 0.86506 0.075(4) 75501. 0.0776 0.0780
41797.1 0.86514 0.076(4) 75466. 0.0776 0.0780
41801.25 0.86523 0.086(4) 63201. 0.0776 0.0780
41805.4 0.86531 0.081(4) 70586. 0.0776 0.0780
41809.6 0.86540 0.081(4) 70031. 0.0776 0.0780
41813.8 0.86549 0.079(4) 73165. 0.0776 0.0780
41818.0 0.86558 0.076(4) 76873. 0.0776 0.0780
41822.15 0.86566 0.078(4) 72213. 0.0776 0.0780
41826.3 0.86575 0.072(4) 80470. 0.0776 0.0779
41830.5 0.86583 0.079(4) 70366. 0.0776 0.0779
41834.7 0.86592 0.081(4) 68765. 0.0776 0.0779
41838.9 0.86601 0.073(4) 78361. 0.0776 0.0779
41843.1 0.86610 0.077(4) 73820. 0.0776 0.0779
41847.25 0.86618 0.078(4) 70866. 0.0776 0.0779
41851.4 0.86627 0.071(4) 79857. 0.0776 0.0779
41855.6 0.86635 0.082(4) 67829. 0.0776 0.0779
41859.8 0.86644 0.089(4) 63423. 0.0776 0.0779
41864.0 0.86653 0.084(4) 67491. 0.0776 0.0779
41868.2 0.86661 0.075(4) 74822. 0.0776 0.0779
41872.4 0.86670 0.075(4) 74987. 0.0776 0.0779
41876.55 0.86679 0.082(4) 66536. 0.0776 0.0779
41880.7 0.86687 0.083(4) 67610. 0.0776 0.0779
41884.9 0.86696 0.080(4) 71014. 0.0776 0.0779
41889.1 0.86705 0.086(4) 64082. 0.0776 0.0779
41893.3 0.86713 0.083(4) 66293. 0.0776 0.0779
41897.5 0.86722 0.077(4) 73254. 0.0776 0.0779
41901.7 0.86731 0.085(4) 63954. 0.0776 0.0779
41905.9 0.86740 0.081(4) 68898. 0.0776 0.0779
41910.1 0.86748 0.080(4) 69684. 0.0776 0.0779
41914.25 0.86757 0.080(4) 68761. 0.0776 0.0779
41918.4 0.86765 0.080(4) 68530. 0.0776 0.0779
41922.6 0.86774 0.078(4) 71319. 0.0776 0.0779
41926.8 0.86783 0.079(4) 69876. 0.0776 0.0779
41931.0 0.86792 0.080(4) 70607. 0.0776 0.0779
41935.2 0.86800 0.082(4) 68572. 0.0776 0.0779
41939.4 0.86809 0.082(4) 67538. 0.0776 0.0779
41943.6 0.86818 0.081(4) 69202. 0.0776 0.0779
41947.8 0.86826 0.074(4) 78877. 0.0776 0.0779
41952.0 0.86835 0.078(4) 74084. 0.0776 0.0779
41956.2 0.86844 0.085(4) 67573. 0.0776 0.0779
41960.4 0.86852 0.076(4) 77395. 0.0776 0.0779
41964.6 0.86861 0.0709(35) 82729. 0.07758 0.07791
41968.8 0.86870 0.0700(34) 85247. 0.07758 0.07791
41973.0 0.86878 0.075(4) 80272. 0.0776 0.0779
41977.2 0.86887 0.076(4) 79270. 0.0776 0.0779
41981.4 0.86896 0.0719(34) 87129. 0.07758 0.07793
41985.6 0.86905 0.077(4) 78419. 0.0776 0.0779
41989.8 0.86913 0.078(4) 78853. 0.0776 0.0779
41994.0 0.86922 0.077(4) 80291. 0.0776 0.0779
41998.2 0.86931 0.0748(35) 83386. 0.07758 0.07795
42002.4 0.86939 0.0743(35) 83486. 0.07758 0.07796
42006.6 0.86948 0.0746(35) 83857. 0.07758 0.07797
42010.8 0.86957 0.0722(34) 88067. 0.07758 0.07798
42015.0 0.86965 0.0712(33) 90071. 0.07758 0.07799
42019.2 0.86974 0.0743(34) 84800. 0.07758 0.07800
42023.4 0.86983 0.0710(34) 88099. 0.07758 0.07802
42027.6 0.86991 0.0724(34) 87458. 0.07758 0.07803
42031.8 0.87000 0.0759(35) 83674. 0.07758 0.07805
42036.0 0.87009 0.077(4) 80365. 0.0776 0.0781
42040.2 0.87018 0.0715(34) 88233. 0.07758 0.07809
42044.4 0.87026 0.0751(35) 83355. 0.07758 0.07811
42048.6 0.87035 0.0760(35) 82941. 0.07758 0.07813
42052.8 0.87044 0.083(4) 74741. 0.0776 0.0782
42057.0 0.87052 0.080(4) 78149. 0.0776 0.0782
42061.2 0.87061 0.0743(35) 83933. 0.07758 0.07822
42065.4 0.87070 0.0734(34) 84684. 0.07758 0.07826
42069.6 0.87078 0.0694(33) 91599. 0.07758 0.07831
42073.8 0.87087 0.0722(34) 86842. 0.07758 0.07836
42078.0 0.87096 0.0711(33) 89590. 0.07758 0.07842
42082.2 0.87105 0.0750(35) 83619. 0.07758 0.07850
42086.45 0.87113 0.0712(33) 90298. 0.07758 0.07859
42090.7 0.87122 0.0715(34) 87187. 0.07758 0.07871
42094.9 0.87131 0.0722(34) 87529. 0.07758 0.07884
42099.1 0.87140 0.0708(33) 89327. 0.07758 0.07900
42103.3 0.87148 0.0712(34) 88596. 0.07757 0.07920
42107.5 0.87157 0.0758(35) 82854. 0.07757 0.07943
42111.7 0.87166 0.078(4) 78763. 0.0776 0.0797
42115.9 0.87174 0.078(4) 79822. 0.0776 0.0800
42120.1 0.87183 0.0767(35) 81709. 0.07757 0.08034
42124.3 0.87192 0.0728(34) 88010. 0.07757 0.08071
42128.55 0.87200 0.0762(34) 84091. 0.07757 0.08112
42132.8 0.87209 0.082(4) 75222. 0.0776 0.0815
42137.0 0.87218 0.0721(34) 87499. 0.07757 0.08198
42141.2 0.87227 0.076(4) 80771. 0.0776 0.0825
42145.4 0.87235 0.081(4) 76402. 0.0776 0.0830
42149.6 0.87244 0.080(4) 77256. 0.0776 0.0836
42153.8 0.87253 0.082(4) 75867. 0.0776 0.0842
42158.05 0.87262 0.084(4) 76978. 0.0776 0.0850
42162.3 0.87270 0.086(4) 72518. 0.0776 0.0858
42166.5 0.87279 0.082(4) 75908. 0.0776 0.0867
42170.7 0.87288 0.083(4) 75620. 0.0776 0.0875
42174.9 0.87296 0.085(4) 72163. 0.0776 0.0883
42179.1 0.87305 0.082(4) 76451. 0.0776 0.0890
42183.35 0.87314 0.087(4) 71921. 0.0776 0.0895
42187.6 0.87323 0.084(4) 74346. 0.0776 0.0898
42191.8 0.87331 0.090(4) 67666. 0.0776 0.0899
42196.0 0.87340 0.082(4) 77756. 0.0776 0.0896
42200.2 0.87349 0.079(4) 79773. 0.0776 0.0892
42204.45 0.87358 0.079(4) 80721. 0.0776 0.0886
42208.7 0.87366 0.081(4) 78157. 0.0776 0.0879
42212.9 0.87375 0.0763(35) 83375. 0.07756 0.08716
42217.1 0.87384 0.081(4) 74663. 0.0776 0.0864
42221.3 0.87392 0.0751(35) 82720. 0.07756 0.08564
42225.55 0.87401 0.078(4) 81045. 0.0776 0.0849
42229.8 0.87410 0.081(4) 78052. 0.0776 0.0842
42234.0 0.87419 0.083(4) 73967. 0.0776 0.0836
42238.2 0.87427 0.0776(35) 81344. 0.07756 0.08303
42242.45 0.87436 0.0756(34) 86120. 0.07756 0.08251
42246.7 0.87445 0.085(4) 72176. 0.0776 0.0820
42250.9 0.87454 0.083(4) 74340. 0.0776 0.0816
42255.1 0.87462 0.078(4) 79407. 0.0776 0.0813
42259.35 0.87471 0.0736(34) 87020. 0.07756 0.08093
42263.6 0.87480 0.0761(35) 83637. 0.07756 0.08063
42267.8 0.87489 0.084(4) 71999. 0.0776 0.0804
42272.0 0.87497 0.0763(35) 82702. 0.07756 0.08013
42276.25 0.87506 0.0756(35) 83689. 0.07755 0.07991
42280.5 0.87515 0.0734(34) 84951. 0.07755 0.07972
42284.7 0.87524 0.0758(35) 81571. 0.07755 0.07953
42288.95 0.87533 0.0736(34) 87252. 0.07755 0.07938
42293.2 0.87541 0.0747(35) 83848. 0.07755 0.07923
42297.4 0.87550 0.076(4) 80794. 0.0776 0.0791
42301.6 0.87559 0.0748(35) 81623. 0.07755 0.07900
42305.85 0.87568 0.0733(34) 86055. 0.07755 0.07890
42310.1 0.87576 0.0736(35) 82998. 0.07755 0.07881
42314.3 0.87585 0.0662(32) 96178. 0.07755 0.07873
42318.55 0.87594 0.0761(35) 82308. 0.07755 0.07866
42322.8 0.87603 0.0765(35) 82360. 0.07755 0.07860
42327.0 0.87611 0.078(4) 78428. 0.0775 0.0785
42331.25 0.87620 0.0716(34) 88417. 0.07755 0.07850
42335.5 0.87629 0.0746(35) 82056. 0.07755 0.07846
42339.7 0.87638 0.077(4) 79549. 0.0775 0.0784
42343.95 0.87646 0.0726(33) 89325. 0.07754 0.07839
42348.2 0.87655 0.078(4) 79916. 0.0775 0.0784
42352.4 0.87664 0.078(4) 79113. 0.0775 0.0783
42356.65 0.87673 0.0760(35) 82643. 0.07754 0.07831
42360.9 0.87681 0.0751(35) 83350. 0.07754 0.07830
42365.1 0.87690 0.078(4) 79749. 0.0775 0.0783
42369.35 0.87699 0.0763(35) 81522. 0.07754 0.07827
42373.6 0.87708 0.0737(34) 84795. 0.07754 0.07827
42377.8 0.87716 0.083(4) 71346. 0.0775 0.0783
42382.05 0.87725 0.078(4) 79341. 0.0775 0.0783
42386.3 0.87734 0.077(4) 79234. 0.0775 0.0783
42390.55 0.87743 0.079(4) 77002. 0.0775 0.0783
42394.8 0.87752 0.083(4) 71992. 0.0775 0.0783
42399.0 0.87760 0.084(4) 71384. 0.0775 0.0783
42403.25 0.87769 0.087(4) 67530. 0.0775 0.0783
42407.5 0.87778 0.078(4) 76625. 0.0775 0.0783
42411.75 0.87787 0.078(4) 77496. 0.0775 0.0783
42416.0 0.87796 0.077(4) 76064. 0.0775 0.0783
42420.2 0.87804 0.073(4) 79775. 0.0775 0.0784
42424.45 0.87813 0.076(4) 79395. 0.0775 0.0784
42428.7 0.87822 0.084(4) 69233. 0.0775 0.0784
42432.95 0.87831 0.085(4) 69784. 0.0775 0.0784
42437.2 0.87839 0.082(4) 72066. 0.0775 0.0785
42441.45 0.87848 0.080(4) 75380. 0.0775 0.0785
42445.7 0.87857 0.084(4) 69753. 0.0775 0.0786
42449.95 0.87866 0.075(4) 81216. 0.0775 0.0786
42454.2 0.87875 0.078(4) 75802. 0.0775 0.0787
42458.4 0.87883 0.078(4) 75737. 0.0775 0.0788
42462.65 0.87892 0.077(4) 78887. 0.0775 0.0788
42466.9 0.87901 0.083(4) 69241. 0.0775 0.0789
42471.15 0.87910 0.0741(35) 82411. 0.07752 0.07905
42475.4 0.87919 0.077(4) 77343. 0.0775 0.0792
42479.65 0.87927 0.077(4) 80159. 0.0775 0.0794
42483.9 0.87936 0.079(4) 77428. 0.0775 0.0796
42488.15 0.87945 0.084(4) 72464. 0.0775 0.0798
42492.4 0.87954 0.083(4) 73938. 0.0775 0.0801
42496.65 0.87963 0.081(4) 76588. 0.0775 0.0805
42500.9 0.87971 0.083(4) 73924. 0.0775 0.0810
42505.15 0.87980 0.083(4) 75183. 0.0775 0.0815
42509.4 0.87989 0.085(4) 72007. 0.0775 0.0821
42513.65 0.87998 0.081(4) 76142. 0.0775 0.0828
42517.9 0.88007 0.085(4) 69533. 0.0775 0.0835
42522.15 0.88015 0.081(4) 76325. 0.0775 0.0842
42526.4 0.88024 0.086(4) 70635. 0.0775 0.0849
42530.65 0.88033 0.088(4) 70352. 0.0775 0.0855
42534.9 0.88042 0.091(4) 66234. 0.0775 0.0860
42539.15 0.88051 0.084(4) 73484. 0.0775 0.0864
42543.4 0.88059 0.084(4) 73874. 0.0775 0.0867
42547.65 0.88068 0.088(4) 70410. 0.0775 0.0871
42551.95 0.88077 0.089(4) 69340. 0.0775 0.0874
42556.2 0.88086 0.091(4) 65270. 0.0775 0.0879
42560.45 0.88095 0.089(4) 69510. 0.0775 0.0885
42564.7 0.88103 0.092(4) 65314. 0.0775 0.0893
42568.95 0.88112 0.089(4) 68436. 0.0775 0.0904
42573.2 0.88121 0.091(4) 64856. 0.0775 0.0917
42577.45 0.88130 0.089(4) 67902. 0.0775 0.0934
42581.75 0.88139 0.094(4) 64023. 0.0775 0.0954
42586.0 0.88148 0.097(4) 61519. 0.0775 0.0977
42590.25 0.88156 0.089(4) 68522. 0.0775 0.1002
42594.5 0.88165 0.096(4) 60981. 0.0775 0.1028
42598.75 0.88174 0.099(4) 59699. 0.0775 0.1052
42603.0 0.88183 0.103(4) 55818. 0.0775 0.1073
42607.25 0.88192 0.101(4) 58632. 0.0775 0.1088
42611.55 0.88200 0.108(4) 53581. 0.0775 0.1096
42615.8 0.88209 0.115(5) 48436. 0.0775 0.1096
42620.05 0.88218 0.109(4) 53533. 0.0775 0.1089
42624.35 0.88227 0.113(4) 50278. 0.0775 0.1076
42628.6 0.88236 0.111(4) 50948. 0.0775 0.1059
42632.85 0.88245 0.104(4) 56101. 0.0775 0.1040
42637.1 0.88253 0.102(4) 55831. 0.0775 0.1019
42641.35 0.88262 0.095(4) 60977. 0.0775 0.0999
42645.65 0.88271 0.092(4) 63581. 0.0775 0.0979
42649.9 0.88280 0.100(4) 57393. 0.0775 0.0959
42654.15 0.88289 0.101(4) 57565. 0.0775 0.0942
42658.45 0.88298 0.093(4) 63417. 0.0775 0.0925
42662.7 0.88306 0.086(4) 67892. 0.0775 0.0911
42666.95 0.88315 0.089(4) 66712. 0.0775 0.0897
42671.25 0.88324 0.093(4) 63525. 0.0775 0.0885
42675.5 0.88333 0.092(4) 63337. 0.0775 0.0875
42679.75 0.88342 0.087(4) 68245. 0.0775 0.0865
42684.05 0.88350 0.088(4) 67655. 0.0775 0.0856
42688.3 0.88359 0.085(4) 71763. 0.0775 0.0849
42692.55 0.88368 0.081(4) 75879. 0.0775 0.0842
42696.85 0.88377 0.080(4) 76422. 0.0775 0.0836
42701.15 0.88386 0.088(4) 68379. 0.0775 0.0830
42705.4 0.88395 0.083(4) 71588. 0.0775 0.0825
42709.65 0.88403 0.078(4) 77162. 0.0775 0.0821
42713.95 0.88412 0.081(4) 75781. 0.0775 0.0817
42718.2 0.88421 0.087(4) 67708. 0.0775 0.0813
42722.45 0.88430 0.083(4) 73749. 0.0775 0.0810
42726.75 0.88439 0.089(4) 68147. 0.0775 0.0807
42731.0 0.88448 0.089(4) 65425. 0.0775 0.0804
42735.25 0.88456 0.084(4) 71942. 0.0775 0.0802
42739.55 0.88465 0.084(4) 70802. 0.0775 0.0800
42743.85 0.88474 0.076(4) 80670. 0.0775 0.0798
42748.1 0.88483 0.090(4) 64131. 0.0775 0.0796
42752.35 0.88492 0.083(4) 73033. 0.0775 0.0794
42756.65 0.88501 0.083(4) 71374. 0.0775 0.0793
42760.95 0.88510 0.082(4) 74421. 0.0775 0.0792
42765.2 0.88519 0.088(4) 66680. 0.0775 0.0791
42769.45 0.88527 0.082(4) 73873. 0.0775 0.0790
42773.75 0.88536 0.084(4) 71144. 0.0775 0.0789
42778.05 0.88545 0.084(4) 71833. 0.0775 0.0788
42782.35 0.88554 0.082(4) 74235. 0.0775 0.0787
42786.6 0.88563 0.078(4) 76857. 0.0775 0.0786
42790.85 0.88572 0.0724(34) 85224. 0.07745 0.07855
42795.15 0.88580 0.081(4) 74223. 0.0775 0.0785
42799.45 0.88589 0.084(4) 73633. 0.0775 0.0784
42803.75 0.88598 0.086(4) 70908. 0.0774 0.0784
42808.0 0.88607 0.087(4) 67822. 0.0774 0.0783
42812.25 0.88616 0.086(4) 70612. 0.0774 0.0783
42816.55 0.88625 0.085(4) 72439. 0.0774 0.0783
42820.85 0.88634 0.079(4) 78803. 0.0774 0.0782
42825.15 0.88643 0.077(4) 79166. 0.0774 0.0782
42829.4 0.88651 0.0713(34) 87127. 0.07744 0.07817
42833.65 0.88660 0.0722(34) 87863. 0.07744 0.07814
42837.95 0.88669 0.080(4) 75318. 0.0774 0.0781
42842.25 0.88678 0.0747(35) 83382. 0.07744 0.07809
42846.55 0.88687 0.0746(35) 83995. 0.07744 0.07807
42850.85 0.88696 0.0753(35) 83842. 0.07744 0.07805
42855.15 0.88705 0.080(4) 76612. 0.0774 0.0780
42859.4 0.88714 0.082(4) 73804. 0.0774 0.0780
42863.65 0.88722 0.084(4) 72132. 0.0774 0.0780
42867.95 0.88731 0.078(4) 78875. 0.0774 0.0780
42872.25 0.88740 0.078(4) 78817. 0.0774 0.0780
42876.55 0.88749 0.079(4) 78540. 0.0774 0.0780
42880.85 0.88758 0.084(4) 72972. 0.0774 0.0779
42885.15 0.88767 0.082(4) 75736. 0.0774 0.0779
42889.4 0.88776 0.082(4) 74198. 0.0774 0.0779
42893.65 0.88784 0.084(4) 73242. 0.0774 0.0779
42897.95 0.88793 0.085(4) 73004. 0.0774 0.0779
42902.25 0.88802 0.084(4) 72755. 0.0774 0.0779
42906.55 0.88811 0.082(4) 75611. 0.0774 0.0779
42910.85 0.88820 0.080(4) 76913. 0.0774 0.0779
42915.15 0.88829 0.0750(35) 83045. 0.07742 0.07789
42919.45 0.88838 0.0714(34) 87400. 0.07742 0.07788
42923.75 0.88847 0.0755(35) 82471. 0.07742 0.07788
42928.05 0.88856 0.078(4) 78645. 0.0774 0.0779
42932.35 0.88865 0.0718(34) 87885. 0.07742 0.07791
42936.65 0.88873 0.0704(34) 88081. 0.07742 0.07791
42940.9 0.88882 0.080(4) 74582. 0.0774 0.0779
42945.15 0.88891 0.081(4) 77818. 0.0774 0.0779
42949.45 0.88900 0.078(4) 80766. 0.0774 0.0779
42953.75 0.88909 0.0757(34) 85115. 0.07741 0.07790
42958.05 0.88918 0.0797(35) 81636. 0.07741 0.07790
42962.35 0.88927 0.0772(35) 83562. 0.07741 0.07792
42966.65 0.88936 0.0758(34) 84664. 0.07741 0.07792
42970.95 0.88944 0.080(4) 78592. 0.0774 0.0779
42975.25 0.88953 0.081(4) 77812. 0.0774 0.0779
42979.55 0.88962 0.083(4) 75160. 0.0774 0.0779
42983.85 0.88971 0.078(4) 80049. 0.0774 0.0779
42988.15 0.88980 0.0780(35) 81376. 0.07740 0.07794
42992.45 0.88989 0.082(4) 78022. 0.0774 0.0779
42996.75 0.88998 0.0765(34) 84334. 0.07740 0.07794
43001.05 0.89007 0.0712(33) 90950. 0.07740 0.07795
43005.35 0.89016 0.0780(35) 82772. 0.07740 0.07795
43009.65 0.89025 0.081(4) 79444. 0.0774 0.0780
43013.95 0.89033 0.0772(34) 84968. 0.07739 0.07796
43018.25 0.89042 0.0774(34) 85307. 0.07739 0.07797
43022.55 0.89051 0.0767(34) 85034. 0.07739 0.07798
43026.85 0.89060 0.0748(34) 86574. 0.07739 0.07799
43031.15 0.89069 0.0744(34) 87577. 0.07739 0.07800
43035.45 0.89078 0.081(4) 76984. 0.0774 0.0780
43039.75 0.89087 0.0742(34) 87262. 0.07739 0.07803
43044.05 0.89096 0.079(4) 79965. 0.0774 0.0780
43048.35 0.89105 0.080(4) 78517. 0.0774 0.0781
43052.65 0.89114 0.0767(35) 82860. 0.07738 0.07807
43056.95 0.89122 0.0720(34) 88806. 0.07738 0.07809
43061.25 0.89131 0.0734(34) 87436. 0.07738 0.07811
43065.6 0.89140 0.0750(34) 87550. 0.07738 0.07813
43069.95 0.89149 0.0724(34) 88174. 0.07738 0.07816
43074.25 0.89158 0.0734(34) 87172. 0.07738 0.07818
43078.55 0.89167 0.0747(34) 86523. 0.07738 0.07821
43082.85 0.89176 0.0762(35) 83903. 0.07738 0.07824
43087.15 0.89185 0.078(4) 80471. 0.0774 0.0783
43091.45 0.89194 0.081(4) 77959. 0.0774 0.0783
43095.75 0.89203 0.082(4) 77635. 0.0774 0.0783
43100.05 0.89212 0.082(4) 76242. 0.0774 0.0784
43104.35 0.89221 0.0771(35) 82232. 0.07737 0.07843
43108.65 0.89230 0.0755(34) 84246. 0.07737 0.07847
43113.0 0.89239 0.0702(33) 94088. 0.07737 0.07853
43117.35 0.89248 0.078(4) 80854. 0.0774 0.0786
43121.65 0.89256 0.085(4) 72311. 0.0774 0.0786
43125.95 0.89265 0.0753(34) 84468. 0.07736 0.07873
43130.25 0.89274 0.080(4) 77127. 0.0774 0.0788
43134.55 0.89283 0.081(4) 76461. 0.0774 0.0789
43138.85 0.89292 0.080(4) 78037. 0.0774 0.0791
43143.15 0.89301 0.080(4) 79640. 0.0774 0.0792
43147.5 0.89310 0.0793(35) 81638. 0.07736 0.07940
43151.85 0.89319 0.081(4) 77162. 0.0774 0.0796
43156.15 0.89328 0.083(4) 75138. 0.0774 0.0799
43160.45 0.89337 0.079(4) 79964. 0.0774 0.0802
43164.75 0.89346 0.0736(34) 86195. 0.07735 0.08057
43169.05 0.89355 0.077(4) 80600. 0.0774 0.0810
43173.4 0.89364 0.0771(35) 83572. 0.07735 0.08141
43177.75 0.89373 0.0740(34) 86837. 0.07735 0.08186
43182.05 0.89381 0.084(4) 73369. 0.0773 0.0823
43186.35 0.89390 0.084(4) 74781. 0.0773 0.0827
43190.65 0.89399 0.081(4) 77131. 0.0773 0.0831
43194.95 0.89408 0.0762(35) 83642. 0.07734 0.08336
43199.3 0.89417 0.084(4) 74944. 0.0773 0.0836
43203.65 0.89426 0.081(4) 77461. 0.0773 0.0839
43207.95 0.89435 0.082(4) 77858. 0.0773 0.0841
43212.25 0.89444 0.086(4) 72912. 0.0773 0.0845
43216.55 0.89453 0.079(4) 79655. 0.0773 0.0849
43220.9 0.89462 0.080(4) 80413. 0.0773 0.0855
43225.25 0.89471 0.084(4) 75184. 0.0773 0.0863
43229.55 0.89480 0.0800(35) 81554. 0.07733 0.08733
43233.85 0.89489 0.082(4) 77674. 0.0773 0.0885
43238.2 0.89498 0.0802(35) 81623. 0.07733 0.08995
43242.55 0.89507 0.086(4) 74574. 0.0773 0.0915
43246.85 0.89516 0.091(4) 69440. 0.0773 0.0932
43251.15 0.89525 0.094(4) 66361. 0.0773 0.0949
43255.5 0.89534 0.092(4) 69185. 0.0773 0.0964
43259.85 0.89543 0.094(4) 66087. 0.0773 0.0976
43264.15 0.89551 0.091(4) 69708. 0.0773 0.0985
43268.45 0.89560 0.084(4) 79617. 0.0773 0.0990
43272.8 0.89569 0.084(4) 80221. 0.0773 0.0993
43277.15 0.89578 0.089(4) 70728. 0.0773 0.0995
43281.45 0.89587 0.091(4) 68120. 0.0773 0.0997
43285.8 0.89596 0.085(4) 78684. 0.0773 0.1001
43290.15 0.89605 0.096(4) 67304. 0.0773 0.1007
43294.45 0.89614 0.096(4) 67140. 0.0773 0.1016
43298.75 0.89623 0.107(4) 58576. 0.0773 0.1029
43303.1 0.89632 0.103(4) 62858. 0.0773 0.1045
43307.45 0.89641 0.105(4) 59762. 0.0773 0.1063
43311.75 0.89650 0.107(4) 58961. 0.0773 0.1082
43316.1 0.89659 0.103(4) 64167. 0.0773 0.1101
43320.45 0.89668 0.111(4) 57430. 0.0773 0.1116
43324.75 0.89677 0.117(4) 54070. 0.0773 0.1127
43329.1 0.89686 0.118(4) 54166. 0.0773 0.1132
43333.45 0.89695 0.119(4) 53384. 0.0773 0.1131
43337.75 0.89704 0.119(4) 53495. 0.0773 0.1123
43342.1 0.89713 0.111(4) 59457. 0.0773 0.1110
43346.45 0.89722 0.112(4) 57499. 0.0773 0.1092
43350.75 0.89731 0.105(4) 61869. 0.0773 0.1072
43355.1 0.89740 0.110(4) 58103. 0.0773 0.1051
43359.45 0.89749 0.112(4) 56954. 0.0773 0.1028
43363.75 0.89758 0.109(4) 58963. 0.0773 0.1006
43368.1 0.89767 0.105(4) 62264. 0.0773 0.0985
43372.45 0.89776 0.100(4) 63906. 0.0773 0.0965
43376.75 0.89785 0.093(4) 70480. 0.0773 0.0947
43381.1 0.89794 0.097(4) 67761. 0.0773 0.0930
43385.45 0.89803 0.094(4) 68503. 0.0773 0.0915
43389.8 0.89812 0.088(4) 75096. 0.0773 0.0901
43394.15 0.89821 0.086(4) 74809. 0.0773 0.0889
43398.45 0.89829 0.086(4) 75584. 0.0773 0.0878
43402.8 0.89838 0.091(4) 70977. 0.0773 0.0869
43407.15 0.89847 0.089(4) 71903. 0.0773 0.0860
43411.5 0.89856 0.087(4) 73461. 0.0773 0.0852
43415.85 0.89866 0.091(4) 69337. 0.0773 0.0845
43420.15 0.89874 0.084(4) 77646. 0.0773 0.0839
43424.5 0.89883 0.086(4) 75967. 0.0773 0.0833
43428.85 0.89892 0.0781(34) 84710. 0.07727 0.08277
43433.2 0.89901 0.083(4) 77657. 0.0773 0.0823
43437.55 0.89910 0.086(4) 73940. 0.0773 0.0819
43441.9 0.89919 0.082(4) 79966. 0.0773 0.0815
43446.25 0.89928 0.087(4) 71558. 0.0773 0.0812
43450.6 0.89937 0.0793(35) 82473. 0.07727 0.08091
43454.95 0.89946 0.081(4) 80037. 0.0773 0.0807
43459.25 0.89955 0.084(4) 76245. 0.0773 0.0804
43463.6 0.89964 0.0800(35) 81731. 0.07726 0.08021
43467.95 0.89973 0.084(4) 76002. 0.0773 0.0800
43472.3 0.89982 0.085(4) 75461. 0.0773 0.0798
43476.65 0.89991 0.086(4) 72750. 0.0773 0.0797
43481.0 0.90000 0.086(4) 75237. 0.0773 0.0796
43485.35 0.90009 0.083(4) 77409. 0.0773 0.0794
43489.7 0.90018 0.083(4) 78426. 0.0773 0.0793
43494.05 0.90027 0.083(4) 76053. 0.0773 0.0792
43498.4 0.90036 0.0769(34) 85675. 0.07725 0.07915
43502.75 0.90045 0.083(4) 77882. 0.0773 0.0791
43507.1 0.90054 0.082(4) 79939. 0.0773 0.0790
43511.45 0.90063 0.079(4) 80705. 0.0772 0.0789
43515.8 0.90072 0.0765(34) 87992. 0.07725 0.07889
43520.15 0.90081 0.082(4) 78360. 0.0772 0.0788
43524.5 0.90090 0.0766(34) 86604. 0.07725 0.07884
43528.85 0.90099 0.0787(35) 83672. 0.07724 0.07881
43533.2 0.90108 0.0779(34) 86002. 0.07724 0.07878
43537.55 0.90117 0.0759(34) 86014. 0.07724 0.07876
43541.9 0.90126 0.0785(34) 84360. 0.07724 0.07874
43546.25 0.90135 0.082(4) 80757. 0.0772 0.0787
43550.6 0.90144 0.0822(35) 81913. 0.07724 0.07873
43555.0 0.90154 0.083(4) 79421. 0.0772 0.0787
43559.35 0.90163 0.083(4) 78013. 0.0772 0.0787
43563.7 0.90172 0.0757(34) 88770. 0.07723 0.07873
43568.05 0.90181 0.081(4) 80170. 0.0772 0.0788
43572.4 0.90190 0.0781(34) 85623. 0.07723 0.07879
43576.75 0.90199 0.0760(34) 85914. 0.07723 0.07881
43581.1 0.90208 0.0782(34) 85858. 0.07723 0.07884
43585.5 0.90217 0.0775(34) 88149. 0.07723 0.07887
43589.85 0.90226 0.0773(34) 85818. 0.07723 0.07892
43594.2 0.90235 0.0744(33) 91282. 0.07722 0.07896
43598.55 0.90244 0.081(4) 79692. 0.0772 0.0790
43602.9 0.90253 0.082(4) 80022. 0.0772 0.0791
43607.3 0.90262 0.0791(35) 83516. 0.07722 0.07912
43611.65 0.90271 0.0782(35) 83798. 0.07722 0.07919
43616.0 0.90280 0.0767(34) 87662. 0.07722 0.07927
43620.35 0.90289 0.083(4) 76654. 0.0772 0.0794
43624.7 0.90298 0.0795(35) 83733. 0.07721 0.07945
43629.1 0.90307 0.086(4) 76935. 0.0772 0.0796
43633.45 0.90316 0.089(4) 73455. 0.0772 0.0797
43637.8 0.90325 0.082(4) 79140. 0.0772 0.0798
43642.2 0.90334 0.0741(33) 89251. 0.07721 0.07997
43646.55 0.90343 0.0793(35) 82078. 0.07721 0.08015
43650.9 0.90352 0.0778(34) 86625. 0.07721 0.08035
43655.25 0.90361 0.086(4) 76178. 0.0772 0.0806
43659.6 0.90370 0.085(4) 78903. 0.0772 0.0809
43664.0 0.90379 0.091(4) 70968. 0.0772 0.0812
43668.35 0.90388 0.081(4) 79726. 0.0772 0.0815
43672.7 0.90397 0.0778(34) 85233. 0.07720 0.08199
43677.1 0.90406 0.081(4) 81048. 0.0772 0.0825
43681.45 0.90415 0.086(4) 75509. 0.0772 0.0832
43685.8 0.90424 0.084(4) 80790. 0.0772 0.0840
43690.2 0.90433 0.084(4) 80185. 0.0772 0.0850
43694.6 0.90443 0.087(4) 77191. 0.0772 0.0863
43698.95 0.90452 0.085(4) 78428. 0.0772 0.0878
43703.3 0.90461 0.090(4) 73879. 0.0772 0.0898
43707.7 0.90470 0.092(4) 73600. 0.0772 0.0922
43712.05 0.90479 0.090(4) 73288. 0.0772 0.0951
43716.4 0.90488 0.086(4) 78785. 0.0772 0.0984
43720.8 0.90497 0.099(4) 66952. 0.0772 0.1024
43725.15 0.90506 0.110(4) 58922. 0.0772 0.1067
43729.5 0.90515 0.113(4) 57376. 0.0772 0.1114
43733.9 0.90524 0.115(4) 57398. 0.0772 0.1161
43738.3 0.90533 0.126(4) 51548. 0.0772 0.1206
43742.65 0.90542 0.134(5) 47675. 0.0772 0.1243
43747.0 0.90551 0.131(4) 49942. 0.0772 0.1272
43751.4 0.90560 0.126(4) 52332. 0.0772 0.1291
43755.8 0.90569 0.129(4) 50790. 0.0772 0.1300
43760.15 0.90578 0.135(5) 46922. 0.0772 0.1303
43764.5 0.90587 0.126(4) 52046. 0.0772 0.1299
43768.9 0.90596 0.128(4) 50650. 0.0772 0.1290
43773.3 0.90606 0.127(4) 51506. 0.0772 0.1276
43777.7 0.90615 0.127(4) 50802. 0.0772 0.1256
43782.05 0.90624 0.127(5) 49327. 0.0772 0.1231
43786.4 0.90633 0.121(4) 53516. 0.0772 0.1203
43790.8 0.90642 0.116(4) 56752. 0.0772 0.1173
43795.2 0.90651 0.121(4) 52928. 0.0772 0.1141
43799.55 0.90660 0.116(4) 54688. 0.0772 0.1110
43803.9 0.90669 0.109(4) 59509. 0.0772 0.1081
43808.3 0.90678 0.106(4) 61215. 0.0772 0.1052
43812.7 0.90687 0.109(4) 59080. 0.0772 0.1026
43817.1 0.90696 0.104(4) 62502. 0.0772 0.1001
43821.5 0.90705 0.096(4) 68708. 0.0772 0.0979
43825.85 0.90714 0.100(4) 63592. 0.0772 0.0959
43830.2 0.90723 0.098(4) 65148. 0.0772 0.0941
43834.6 0.90732 0.094(4) 69613. 0.0772 0.0925
43839.0 0.90742 0.092(4) 71011. 0.0771 0.0910
43843.4 0.90751 0.092(4) 70466. 0.0771 0.0897
43847.8 0.90760 0.089(4) 74939. 0.0771 0.0885
43852.15 0.90769 0.098(4) 64522. 0.0771 0.0875
43856.5 0.90778 0.093(4) 70683. 0.0771 0.0866
43860.9 0.90787 0.089(4) 73895. 0.0771 0.0857
43865.3 0.90796 0.085(4) 76991. 0.0771 0.0850
43869.7 0.90805 0.082(4) 79431. 0.0771 0.0843
43874.1 0.90814 0.083(4) 78971. 0.0771 0.0837
43878.5 0.90823 0.087(4) 74801. 0.0771 0.0831
43882.85 0.90832 0.090(4) 72577. 0.0771 0.0827
43887.2 0.90841 0.085(4) 77706. 0.0771 0.0822
43891.6 0.90850 0.0808(35) 81973. 0.07713 0.08183
43896.0 0.90860 0.0784(34) 85396. 0.07713 0.08148
43900.4 0.90869 0.0786(34) 84619. 0.07713 0.08116
43904.8 0.90878 0.0809(35) 81527. 0.07713 0.08088
43909.2 0.90887 0.084(4) 77679. 0.0771 0.0806
43913.6 0.90896 0.082(4) 79868. 0.0771 0.0804
43918.0 0.90905 0.0786(34) 84992. 0.07712 0.08018
43922.4 0.90914 0.0788(35) 83917. 0.07712 0.07999
43926.75 0.90923 0.080(4) 80965. 0.0771 0.0798
43931.1 0.90932 0.0814(35) 81686. 0.07712 0.07967
43935.5 0.90941 0.083(4) 81010. 0.0771 0.0795
43939.9 0.90950 0.083(4) 80989. 0.0771 0.0794
43944.3 0.90960 0.084(4) 78960. 0.0771 0.0793
43948.7 0.90969 0.0718(32) 95126. 0.07712 0.07918
43953.1 0.90978 0.0758(34) 88463. 0.07711 0.07909
43957.5 0.90987 0.0785(34) 86235. 0.07711 0.07900
43961.9 0.90996 0.084(4) 79314. 0.0771 0.0789
43966.3 0.91005 0.083(4) 80762. 0.0771 0.0789
43970.7 0.91014 0.087(4) 76277. 0.0771 0.0788
43975.1 0.91023 0.087(4) 76644. 0.0771 0.0787
43979.5 0.91032 0.085(4) 77050. 0.0771 0.0787
43983.9 0.91041 0.084(4) 78330. 0.0771 0.0786
43988.3 0.91051 0.0812(35) 81673. 0.07710 0.07860
43992.7 0.91060 0.0769(34) 86878. 0.07710 0.07856
43997.1 0.91069 0.0721(32) 95963. 0.07710 0.07853
44001.5 0.91078 0.0786(34) 85528. 0.07710 0.07849
44005.9 0.91087 0.083(4) 79664. 0.0771 0.0785
44010.3 0.91096 0.0776(34) 87325. 0.07710 0.07844
44014.7 0.91105 0.0817(35) 81374. 0.07710 0.07842
44019.1 0.91114 0.0807(35) 83014. 0.07709 0.07840
44023.5 0.91123 0.0787(34) 86355. 0.07709 0.07838
44027.9 0.91133 0.089(4) 74526. 0.0771 0.0784
44032.3 0.91142 0.0822(35) 82094. 0.07709 0.07835
44036.7 0.91151 0.0803(35) 83382. 0.07709 0.07834
44041.1 0.91160 0.0772(34) 86091. 0.07709 0.07833
44045.5 0.91169 0.0724(33) 94536. 0.07709 0.07833
44049.9 0.91178 0.085(4) 77116. 0.0771 0.0783
44054.3 0.91187 0.085(4) 77513. 0.0771 0.0783
44058.7 0.91196 0.082(4) 79904. 0.0771 0.0783
44063.1 0.91205 0.0798(35) 83987. 0.07708 0.07832
44067.5 0.91215 0.0806(35) 81634. 0.07708 0.07832
44071.9 0.91224 0.0779(34) 86734. 0.07708 0.07832
44076.35 0.91233 0.0794(34) 86766. 0.07708 0.07831
44080.8 0.91242 0.0778(34) 85986. 0.07708 0.07832
44085.2 0.91251 0.0720(33) 94309. 0.07707 0.07832
44089.6 0.91260 0.0791(35) 83348. 0.07707 0.07833
44094.0 0.91269 0.085(4) 77277. 0.0771 0.0783
44098.4 0.91279 0.084(4) 79418. 0.0771 0.0784
44102.8 0.91288 0.086(4) 77610. 0.0771 0.0784
44107.2 0.91297 0.0834(35) 81616. 0.07707 0.07839
44111.6 0.91306 0.0738(33) 93377. 0.07707 0.07840
44116.0 0.91315 0.0799(35) 82908. 0.07707 0.07842
44120.45 0.91324 0.0792(34) 87795. 0.07706 0.07844
44124.9 0.91333 0.084(4) 79840. 0.0771 0.0785
44129.3 0.91343 0.0822(35) 81560. 0.07706 0.07849
44133.7 0.91352 0.0815(35) 83768. 0.07706 0.07852
44138.1 0.91361 0.0820(35) 82858. 0.07706 0.07853
44142.5 0.91370 0.0784(34) 88533. 0.07706 0.07856
44146.9 0.91379 0.0780(33) 89275. 0.07706 0.07859
44151.3 0.91388 0.0821(35) 83665. 0.07705 0.07862
44155.75 0.91397 0.0783(33) 90659. 0.07705 0.07866
44160.2 0.91406 0.0720(32) 97015. 0.07705 0.07870
44164.6 0.91416 0.0740(33) 91280. 0.07705 0.07875
44169.0 0.91425 0.0754(33) 90459. 0.07705 0.07880
44173.4 0.91434 0.0784(34) 87561. 0.07705 0.07887
44177.85 0.91443 0.0814(34) 85300. 0.07705 0.07893
44182.3 0.91452 0.086(4) 77146. 0.0770 0.0790
44186.7 0.91461 0.0825(35) 81621. 0.07704 0.07906
44191.1 0.91470 0.0794(34) 87876. 0.07704 0.07913
44195.5 0.91480 0.086(4) 78155. 0.0770 0.0792
44199.9 0.91489 0.0817(35) 81829. 0.07704 0.07929
44204.35 0.91498 0.0800(34) 85894. 0.07704 0.07938
44208.8 0.91507 0.087(4) 76262. 0.0770 0.0795
44213.2 0.91516 0.085(4) 78679. 0.0770 0.0796
44217.6 0.91525 0.083(4) 81174. 0.0770 0.0797
44222.0 0.91534 0.083(4) 81090. 0.0770 0.0799
44226.45 0.91544 0.0802(34) 85969. 0.07703 0.08000
44230.9 0.91553 0.0813(35) 83793. 0.07703 0.08015
44235.3 0.91562 0.0820(35) 81286. 0.07703 0.08032
44239.7 0.91571 0.0741(33) 92478. 0.07703 0.08051
44244.15 0.91580 0.0773(34) 88191. 0.07703 0.08071
44248.6 0.91589 0.082(4) 80315. 0.0770 0.0809
44253.0 0.91599 0.0817(35) 82716. 0.07703 0.08120
44257.4 0.91608 0.0808(35) 83488. 0.07702 0.08150
44261.85 0.91617 0.0764(33) 91818. 0.07702 0.08184
44266.3 0.91626 0.085(4) 77321. 0.0770 0.0822
44270.7 0.91635 0.0771(33) 89749. 0.07702 0.08271
44275.1 0.91644 0.0815(34) 85219. 0.07702 0.08328
44279.55 0.91654 0.0843(35) 83966. 0.07702 0.08399
44284.0 0.91663 0.087(4) 77776. 0.0770 0.0849
44288.4 0.91672 0.086(4) 79215. 0.0770 0.0859
44292.85 0.91681 0.088(4) 77940. 0.0770 0.0873
44297.3 0.91690 0.087(4) 78736. 0.0770 0.0890
44301.7 0.91699 0.091(4) 74830. 0.0770 0.0910
44306.15 0.91709 0.0861(35) 81534. 0.07701 0.09340
44310.6 0.91718 0.094(4) 72144. 0.0770 0.0963
44315.0 0.91727 0.099(4) 68621. 0.0770 0.0995
44319.4 0.91736 0.108(4) 61262. 0.0770 0.1032
44323.85 0.91745 0.104(4) 67481. 0.0770 0.1072
44328.3 0.91754 0.116(4) 57987. 0.0770 0.1113
44332.7 0.91764 0.119(4) 56009. 0.0770 0.1152
44337.15 0.91773 0.117(4) 58921. 0.0770 0.1189
44341.6 0.91782 0.121(4) 55094. 0.0770 0.1220
44346.0 0.91791 0.113(4) 60929. 0.0770 0.1245
44350.45 0.91800 0.121(4) 56642. 0.0770 0.1267
44354.9 0.91810 0.125(4) 53623. 0.0770 0.1288
44359.3 0.91819 0.126(4) 53054. 0.0770 0.1308
44363.75 0.91828 0.124(4) 55427. 0.0770 0.1331
44368.2 0.91837 0.136(5) 48473. 0.0770 0.1355
44372.65 0.91846 0.139(5) 48246. 0.0770 0.1380
44377.1 0.91856 0.141(5) 46440. 0.0770 0.1403
44381.5 0.91865 0.146(5) 45091. 0.0770 0.1423
44385.95 0.91874 0.147(5) 45668. 0.0770 0.1437
44390.4 0.91883 0.155(5) 41457. 0.0770 0.1444
44394.85 0.91892 0.156(5) 42614. 0.0770 0.1444
44399.3 0.91901 0.159(5) 41086. 0.0770 0.1436
44403.7 0.91911 0.149(5) 44252. 0.0770 0.1420
44408.15 0.91920 0.148(5) 44999. 0.0770 0.1397
44412.6 0.91929 0.147(5) 44319. 0.0770 0.1368
44417.05 0.91938 0.150(5) 44061. 0.0770 0.1335
44421.5 0.91947 0.143(5) 46058. 0.0770 0.1300
44425.9 0.91957 0.137(5) 48225. 0.0770 0.1265
44430.35 0.91966 0.127(4) 52982. 0.0770 0.1231
44434.8 0.91975 0.121(4) 55004. 0.0770 0.1199
44439.25 0.91984 0.121(4) 55708. 0.0770 0.1171
44443.7 0.91993 0.118(4) 56036. 0.0770 0.1147
44448.15 0.92003 0.118(4) 56402. 0.0770 0.1128
44452.6 0.92012 0.115(4) 57815. 0.0770 0.1113
44457.0 0.92021 0.114(4) 58451. 0.0770 0.1104
44461.45 0.92030 0.119(4) 56136. 0.0770 0.1099
44465.9 0.92039 0.118(4) 55844. 0.0770 0.1099
44470.35 0.92049 0.109(4) 63534. 0.0770 0.1102
44474.8 0.92058 0.116(4) 57832. 0.0770 0.1109
44479.25 0.92067 0.116(4) 58238. 0.0770 0.1118
44483.7 0.92076 0.116(4) 56528. 0.0770 0.1129
44488.15 0.92085 0.111(4) 61756. 0.0770 0.1139
44492.6 0.92095 0.117(4) 56835. 0.0770 0.1150
44497.05 0.92104 0.110(4) 62597. 0.0770 0.1162
44501.5 0.92113 0.121(4) 54312. 0.0770 0.1175
44505.95 0.92122 0.113(4) 62016. 0.0770 0.1189
44510.4 0.92131 0.122(4) 54313. 0.0770 0.1203
44514.85 0.92141 0.119(4) 56579. 0.0770 0.1219
44519.3 0.92150 0.123(4) 53723. 0.0770 0.1236
44523.75 0.92159 0.120(4) 57509. 0.0769 0.1254
44528.2 0.92168 0.134(4) 49507. 0.0769 0.1274
44532.65 0.92178 0.133(4) 50238. 0.0769 0.1296
44537.1 0.92187 0.131(4) 51420. 0.0769 0.1319
44541.55 0.92196 0.138(5) 48739. 0.0769 0.1343
44546.0 0.92205 0.133(4) 50508. 0.0769 0.1367
44550.45 0.92214 0.136(5) 49197. 0.0769 0.1387
44554.95 0.92224 0.137(4) 49519. 0.0769 0.1401
44559.4 0.92233 0.139(5) 47883. 0.0769 0.1406
44563.85 0.92242 0.138(5) 48301. 0.0769 0.1400
44568.3 0.92251 0.134(4) 49652. 0.0769 0.1383
44572.75 0.92261 0.135(4) 50388. 0.0769 0.1357
44577.2 0.92270 0.137(5) 49148. 0.0769 0.1324
44581.65 0.92279 0.134(4) 50892. 0.0769 0.1287
44586.15 0.92288 0.125(4) 55594. 0.0769 0.1247
44590.6 0.92298 0.119(4) 56747. 0.0769 0.1208
44595.05 0.92307 0.110(4) 62559. 0.0769 0.1169
44599.5 0.92316 0.109(4) 63314. 0.0769 0.1133
44603.95 0.92325 0.109(4) 63764. 0.0769 0.1099
44608.45 0.92334 0.106(4) 66248. 0.0769 0.1067
44612.9 0.92344 0.107(4) 63856. 0.0769 0.1038
44617.35 0.92353 0.104(4) 67972. 0.0769 0.1012
44621.8 0.92362 0.102(4) 68888. 0.0769 0.0989
44626.25 0.92371 0.093(4) 76063. 0.0769 0.0968
44630.75 0.92381 0.090(4) 79132. 0.0769 0.0949
44635.2 0.92390 0.104(4) 65831. 0.0769 0.0933
44639.65 0.92399 0.096(4) 72722. 0.0769 0.0918
44644.15 0.92408 0.088(4) 79941. 0.0769 0.0904
44648.6 0.92418 0.087(4) 78490. 0.0769 0.0892
44653.05 0.92427 0.0841(34) 85176. 0.07692 0.08815
44657.55 0.92436 0.089(4) 80775. 0.0769 0.0872
44662.0 0.92445 0.089(4) 78654. 0.0769 0.0863
44666.45 0.92455 0.0852(34) 84581. 0.07691 0.08556
44670.95 0.92464 0.0812(34) 88127. 0.07691 0.08486
44675.4 0.92473 0.0816(34) 86918. 0.07691 0.08424
44679.85 0.92482 0.0811(33) 91290. 0.07691 0.08368
44684.35 0.92492 0.0799(33) 91548. 0.07691 0.08317
44688.8 0.92501 0.090(4) 76260. 0.0769 0.0827
44693.25 0.92510 0.0871(35) 82910. 0.07690 0.08232
44697.75 0.92519 0.0847(34) 85905. 0.07690 0.08195
44702.2 0.92529 0.086(4) 81108. 0.0769 0.0816
44706.65 0.92538 0.0801(33) 91149. 0.07690 0.08132
44711.15 0.92547 0.0818(34) 88345. 0.07690 0.08106
44715.6 0.92556 0.0844(35) 83801. 0.07690 0.08082
44720.05 0.92566 0.0851(34) 85241. 0.07690 0.08060
44724.55 0.92575 0.0836(34) 87688. 0.07690 0.08040
44729.05 0.92584 0.0792(33) 93849. 0.07690 0.08022
44733.5 0.92593 0.0787(33) 92462. 0.07689 0.08006
44737.95 0.92603 0.0752(32) 97921. 0.07689 0.07992
44742.45 0.92612 0.0756(32) 97210. 0.07689 0.07979
44746.95 0.92621 0.0745(31) 101193. 0.07689 0.07967
44751.4 0.92630 0.0773(33) 94661. 0.07689 0.07957
44755.85 0.92640 0.0828(34) 88444. 0.07689 0.07947
44760.35 0.92649 0.0793(33) 93155. 0.07689 0.07939
44764.85 0.92658 0.0722(31) 102748. 0.07689 0.07931
44769.3 0.92667 0.0793(33) 91267. 0.07689 0.07924
44773.75 0.92677 0.0821(33) 89228. 0.07688 0.07918
44778.25 0.92686 0.0796(33) 93755. 0.07688 0.07913
44782.75 0.92695 0.0870(35) 83188. 0.07688 0.07909
44787.2 0.92705 0.0853(34) 85254. 0.07688 0.07905
44791.65 0.92714 0.0802(33) 93680. 0.07688 0.07901
44796.15 0.92723 0.0821(33) 89751. 0.07688 0.07898
44800.65 0.92732 0.0770(32) 98222. 0.07688 0.07896
44805.15 0.92742 0.0781(32) 95924. 0.07688 0.07895
44809.65 0.92751 0.0788(33) 92998. 0.07688 0.07893
44814.1 0.92760 0.0775(33) 93516. 0.07687 0.07893
44818.55 0.92769 0.0812(33) 89835. 0.07687 0.07893
44823.05 0.92779 0.0777(32) 96032. 0.07687 0.07893
44827.55 0.92788 0.0799(33) 90938. 0.07687 0.07894
44832.05 0.92797 0.0760(32) 98607. 0.07687 0.07895
44836.5 0.92807 0.0856(35) 82197. 0.07687 0.07897
44840.95 0.92816 0.0767(32) 96267. 0.07687 0.07900
44845.45 0.92825 0.0812(34) 89050. 0.07687 0.07903
44849.95 0.92834 0.0793(33) 91067. 0.07687 0.07907
44854.45 0.92844 0.0734(32) 98500. 0.07686 0.07912
44858.95 0.92853 0.0754(32) 95867. 0.07686 0.07917
44863.45 0.92862 0.0834(34) 86574. 0.07686 0.07923
44867.9 0.92872 0.0856(35) 82029. 0.07686 0.07931
44872.35 0.92881 0.0772(33) 93291. 0.07686 0.07939
44876.85 0.92890 0.0811(34) 87323. 0.07686 0.07949
44881.35 0.92899 0.0809(33) 89656. 0.07686 0.07959
44885.85 0.92909 0.0848(35) 82900. 0.07686 0.07971
44890.35 0.92918 0.0823(34) 85371. 0.07686 0.07985
44894.85 0.92927 0.0785(33) 92364. 0.07686 0.08001
44899.35 0.92937 0.087(4) 80525. 0.0769 0.0802
44903.8 0.92946 0.0786(33) 91110. 0.07685 0.08040
44908.25 0.92955 0.0749(32) 96042. 0.07685 0.08065
44912.75 0.92964 0.0748(32) 96215. 0.07685 0.08096
44917.25 0.92974 0.0789(33) 91159. 0.07685 0.08133
44921.75 0.92983 0.0769(32) 96713. 0.07685 0.08178
44926.25 0.92992 0.0823(33) 89324. 0.07685 0.08235
44930.75 0.93002 0.0870(35) 83134. 0.07685 0.08305
44935.25 0.93011 0.0810(33) 89739. 0.07685 0.08394
44939.75 0.93020 0.0814(33) 90071. 0.07684 0.08504
44944.25 0.93030 0.089(4) 81006. 0.0768 0.0864
44948.75 0.93039 0.0838(34) 86650. 0.07684 0.08805
44953.25 0.93048 0.0827(34) 87373. 0.07684 0.09002
44957.75 0.93058 0.0852(34) 86232. 0.07684 0.09232
44962.25 0.93067 0.0885(35) 83053. 0.07684 0.09495
44966.75 0.93076 0.092(4) 79054. 0.0768 0.0979
44971.2 0.93085 0.094(4) 76629. 0.0768 0.1009
44975.65 0.93095 0.095(4) 77398. 0.0768 0.1040
44980.15 0.93104 0.103(4) 70122. 0.0768 0.1069
44984.65 0.93113 0.101(4) 72317. 0.0768 0.1096
44989.15 0.93123 0.097(4) 76224. 0.0768 0.1118
44993.65 0.93132 0.105(4) 68996. 0.0768 0.1138
44998.15 0.93141 0.105(4) 69317. 0.0768 0.1155
45002.65 0.93151 0.105(4) 69761. 0.0768 0.1172
45007.15 0.93160 0.109(4) 66636. 0.0768 0.1190
45011.65 0.93169 0.107(4) 68426. 0.0768 0.1208
45016.15 0.93179 0.111(4) 66307. 0.0768 0.1227
45020.65 0.93188 0.108(4) 68067. 0.0768 0.1245
45025.15 0.93197 0.111(4) 66147. 0.0768 0.1259
45029.7 0.93207 0.119(4) 62759. 0.0768 0.1268
45034.25 0.93216 0.122(4) 59674. 0.0768 0.1270
45038.75 0.93225 0.122(4) 59140. 0.0768 0.1265
45043.25 0.93235 0.126(4) 57969. 0.0768 0.1253
45047.75 0.93244 0.131(4) 55859. 0.0768 0.1237
45052.25 0.93253 0.127(4) 57510. 0.0768 0.1216
45056.75 0.93263 0.127(4) 56676. 0.0768 0.1191
45061.25 0.93272 0.125(4) 57817. 0.0768 0.1165
45065.75 0.93281 0.125(4) 57065. 0.0768 0.1136
45070.25 0.93291 0.118(4) 60838. 0.0768 0.1107
45074.75 0.93300 0.121(4) 59055. 0.0768 0.1079
45079.25 0.93309 0.116(4) 61905. 0.0768 0.1051
45083.75 0.93318 0.114(4) 61895. 0.0768 0.1025
45088.25 0.93328 0.109(4) 64973. 0.0768 0.1001
45092.75 0.93337 0.100(4) 72993. 0.0768 0.0979
45097.3 0.93347 0.100(4) 72421. 0.0768 0.0958
45101.85 0.93356 0.098(4) 73925. 0.0768 0.0940
45106.35 0.93365 0.099(4) 73654. 0.0768 0.0923
45110.85 0.93375 0.100(4) 71349. 0.0768 0.0908
45115.35 0.93384 0.096(4) 73590. 0.0768 0.0895
45119.85 0.93393 0.093(4) 77937. 0.0768 0.0883
45124.35 0.93403 0.094(4) 75995. 0.0768 0.0872
45128.85 0.93412 0.091(4) 78778. 0.0768 0.0863
45133.35 0.93421 0.092(4) 76909. 0.0768 0.0854
45137.9 0.93431 0.091(4) 80312. 0.0768 0.0846
45142.45 0.93440 0.092(4) 77009. 0.0768 0.0839
45146.95 0.93449 0.088(4) 79250. 0.0768 0.0833
45151.45 0.93459 0.0849(34) 84148. 0.07680 0.08279
45155.95 0.93468 0.088(4) 80532. 0.0768 0.0823
45160.45 0.93477 0.0877(35) 82078. 0.07680 0.08182
45164.95 0.93487 0.0853(35) 83945. 0.07680 0.08142
45169.5 0.93496 0.0787(33) 93881. 0.07680 0.08106
45174.05 0.93505 0.0865(35) 83218. 0.07679 0.08074
45178.55 0.93515 0.0852(34) 86397. 0.07679 0.08045
45183.05 0.93524 0.0803(33) 92399. 0.07679 0.08019
45187.55 0.93533 0.0833(34) 88827. 0.07679 0.07995
45192.1 0.93543 0.0827(33) 90114. 0.07679 0.07974
45196.65 0.93552 0.0763(32) 96554. 0.07679 0.07951
45201.15 0.93562 0.0789(33) 93898. 0.07679 0.07934
45205.65 0.93571 0.0837(34) 88426. 0.07679 0.07918
45210.15 0.93580 0.0813(33) 91205. 0.07679 0.07904
45214.7 0.93590 0.0779(32) 97433. 0.07679 0.07891
45219.25 0.93599 0.0831(34) 88020. 0.07679 0.07877
45223.75 0.93608 0.0818(33) 89710. 0.07678 0.07867
45228.25 0.93618 0.0843(34) 85798. 0.07678 0.07857
45232.75 0.93627 0.0795(33) 93779. 0.07678 0.07848
45237.3 0.93636 0.0822(33) 90383. 0.07678 0.07840
45241.85 0.93646 0.0795(33) 94192. 0.07678 0.07833
45246.35 0.93655 0.0824(34) 88455. 0.07678 0.07826
45250.85 0.93664 0.0782(32) 95295. 0.07678 0.07820
45255.4 0.93674 0.0777(32) 97367. 0.07678 0.07814
45259.95 0.93683 0.0817(33) 90367. 0.07678 0.07809
45264.45 0.93693 0.0814(33) 90480. 0.07678 0.07804
45268.95 0.93702 0.0802(33) 91098. 0.07678 0.07799
45273.5 0.93711 0.0806(33) 91907. 0.07677 0.07795
45278.05 0.93721 0.0762(32) 99290. 0.07677 0.07791
45282.55 0.93730 0.0836(34) 87019. 0.07677 0.07788
45287.1 0.93739 0.0822(33) 91504. 0.07677 0.07785
45291.65 0.93749 0.0819(34) 89007. 0.07677 0.07782
45296.15 0.93758 0.0752(32) 99369. 0.07677 0.07779
45300.65 0.93767 0.0830(34) 87819. 0.07677 0.07775
45305.2 0.93777 0.0779(32) 97805. 0.07677 0.07773
45309.75 0.93786 0.0792(33) 93634. 0.07677 0.07771
45314.25 0.93796 0.0793(33) 94075. 0.07677 0.07769
45318.8 0.93805 0.0771(32) 99261. 0.07677 0.07767
45323.35 0.93814 0.0778(32) 96534. 0.07677 0.07765
45327.85 0.93824 0.0758(32) 99032. 0.07676 0.07762
45332.4 0.93833 0.0783(32) 95526. 0.07676 0.07761
45336.95 0.93843 0.0787(32) 95972. 0.07676 0.07760
45341.45 0.93852 0.0810(33) 91918. 0.07676 0.07758
45346.0 0.93861 0.0758(32) 99300. 0.07676 0.07757
45350.55 0.93871 0.0767(32) 95332. 0.07676 0.07755
45355.05 0.93880 0.0763(32) 98661. 0.07676 0.07754
45359.6 0.93890 0.0775(32) 98823. 0.07676 0.07753
45364.15 0.93899 0.0798(33) 92139. 0.07676 0.07753
45368.65 0.93908 0.0740(31) 100980. 0.07676 0.07752
45373.2 0.93918 0.0797(33) 93889. 0.07676 0.07751
45377.75 0.93927 0.0814(33) 90767. 0.07676 0.07746
45382.3 0.93937 0.0757(32) 100341. 0.07675 0.07746
45386.85 0.93946 0.0796(33) 92358. 0.07675 0.07746
45391.35 0.93955 0.0773(32) 95947. 0.07675 0.07745
45395.9 0.93965 0.0712(30) 108406. 0.07675 0.07745
45400.45 0.93974 0.0745(31) 102714. 0.07675 0.07745
45405.0 0.93984 0.0779(32) 98262. 0.07675 0.07745
45409.55 0.93993 0.0742(31) 102793. 0.07675 0.07745
45414.05 0.94002 0.0770(32) 97673. 0.07675 0.07745
45418.6 0.94012 0.0755(31) 102115. 0.07675 0.07745
45423.15 0.94021 0.0765(32) 99450. 0.07675 0.07745
45427.7 0.94031 0.0734(31) 107153. 0.07675 0.07745
45432.25 0.94040 0.0773(32) 98992. 0.07675 0.07746
45436.75 0.94049 0.0797(32) 96527. 0.07675 0.07746
45441.3 0.94059 0.0821(33) 94491. 0.07674 0.07747
45445.85 0.94068 0.0808(33) 94550. 0.07674 0.07747
45450.4 0.94078 0.0785(32) 97827. 0.07674 0.07748
45454.95 0.94087 0.0723(30) 108317. 0.07674 0.07748
45459.5 0.94096 0.0774(32) 100634. 0.07674 0.07749
45464.05 0.94106 0.0804(33) 94333. 0.07674 0.07750
45468.6 0.94115 0.0745(31) 104646. 0.07674 0.07751
45473.15 0.94125 0.0727(31) 106437. 0.07674 0.07752
45477.7 0.94134 0.0751(31) 102758. 0.07674 0.07753
45482.25 0.94143 0.0799(33) 93180. 0.07674 0.07754
45486.8 0.94153 0.0763(32) 100620. 0.07674 0.07755
45491.35 0.94162 0.0741(31) 103942. 0.07674 0.07756
45495.9 0.94172 0.0715(30) 108298. 0.07674 0.07758
45500.45 0.94181 0.0719(31) 105817. 0.07673 0.07759
45505.0 0.94191 0.0796(32) 95678. 0.07673 0.07761
45509.55 0.94200 0.0773(32) 98508. 0.07673 0.07763
45514.1 0.94209 0.0756(31) 101540. 0.07673 0.07764
45518.65 0.94219 0.0687(29) 115455. 0.07673 0.07766
45523.2 0.94228 0.0742(31) 104838. 0.07673 0.07769
45527.75 0.94238 0.0779(32) 96356. 0.07673 0.07771
45532.3 0.94247 0.0761(32) 100710. 0.07673 0.07774
45536.85 0.94256 0.0776(32) 97668. 0.07673 0.07776
45541.4 0.94266 0.0758(31) 101868. 0.07673 0.07779
45545.95 0.94275 0.0720(31) 106913. 0.07673 0.07783
45550.5 0.94285 0.0746(31) 101260. 0.07673 0.07786
45555.05 0.94294 0.0812(33) 92414. 0.07673 0.07790
45559.6 0.94304 0.0831(33) 93345. 0.07673 0.07794
45564.2 0.94313 0.0833(33) 92054. 0.07672 0.07799
45568.75 0.94323 0.0818(33) 92278. 0.07672 0.07804
45573.3 0.94332 0.0814(33) 94605. 0.07672 0.07809
45577.85 0.94341 0.0816(33) 93435. 0.07672 0.07817
45582.4 0.94351 0.0770(32) 99897. 0.07672 0.07824
45586.95 0.94360 0.0765(32) 98627. 0.07672 0.07831
45591.5 0.94370 0.0756(31) 102207. 0.07672 0.07840
45596.1 0.94379 0.0818(33) 91895. 0.07672 0.07850
45600.65 0.94389 0.0856(34) 86377. 0.07672 0.07862
45605.2 0.94398 0.0813(33) 94475. 0.07672 0.07876
45609.75 0.94407 0.0802(33) 93972. 0.07672 0.07892
45614.3 0.94417 0.0783(32) 96916. 0.07672 0.07912
45618.9 0.94426 0.0747(31) 102543. 0.07672 0.07937
45623.45 0.94436 0.0813(33) 91026. 0.07672 0.07966
45628.0 0.94445 0.0794(32) 96182. 0.07671 0.08003
45632.6 0.94455 0.0820(33) 91858. 0.07671 0.08047
45637.15 0.94464 0.0823(33) 91158. 0.07671 0.08100
45641.7 0.94474 0.0819(33) 92436. 0.07671 0.08162
45646.25 0.94483 0.0851(34) 86931. 0.07671 0.08235
45650.8 0.94492 0.0830(33) 92002. 0.07671 0.08318
45655.4 0.94502 0.0821(33) 93508. 0.07671 0.08411
45659.95 0.94511 0.0873(34) 85963. 0.07671 0.08511
45664.5 0.94521 0.0856(33) 90528. 0.07671 0.08617
45669.1 0.94530 0.0868(34) 87565. 0.07671 0.08727
45673.65 0.94540 0.0848(34) 88147. 0.07671 0.08833
45678.2 0.94549 0.0864(34) 88222. 0.07671 0.08930
45682.8 0.94559 0.0874(34) 88469. 0.07671 0.09011
45687.35 0.94568 0.093(4) 79954. 0.0767 0.0907
45691.9 0.94577 0.0869(34) 88515. 0.07671 0.09101
45696.5 0.94587 0.0920(35) 83357. 0.07671 0.09112
45701.05 0.94596 0.104(4) 69735. 0.0767 0.0911
45705.6 0.94606 0.096(4) 78539. 0.0767 0.0909
45710.2 0.94615 0.0897(34) 85159. 0.07670 0.09061
45714.8 0.94625 0.0876(34) 88953. 0.07670 0.09028
45719.35 0.94634 0.0919(35) 82088. 0.07670 0.08990
45723.9 0.94644 0.0911(35) 83137. 0.07670 0.08948
45728.5 0.94653 0.0868(34) 88342. 0.07670 0.08901
45733.1 0.94663 0.0907(34) 84395. 0.07670 0.08853
45737.65 0.94672 0.101(4) 71986. 0.0767 0.0880
45742.2 0.94682 0.0911(35) 83603. 0.07670 0.08759
45746.8 0.94691 0.100(4) 73708. 0.0767 0.0872
45751.35 0.94701 0.097(4) 75077. 0.0767 0.0868
45755.9 0.94710 0.092(4) 79753. 0.0767 0.0865
45760.5 0.94719 0.092(4) 79283. 0.0767 0.0863
45765.1 0.94729 0.0870(34) 87083. 0.07670 0.08622
45769.65 0.94738 0.093(4) 78651. 0.0767 0.0862
45774.2 0.94748 0.094(4) 78553. 0.0767 0.0864
45778.8 0.94757 0.094(4) 79868. 0.0767 0.0867
45783.4 0.94767 0.0889(34) 85342. 0.07669 0.08719
45788.0 0.94776 0.0880(34) 85704. 0.07669 0.08790
45792.55 0.94786 0.0901(35) 81893. 0.07669 0.08884
45797.1 0.94795 0.0894(34) 85360. 0.07669 0.09005
45801.7 0.94805 0.0916(35) 83725. 0.07669 0.09156
45806.3 0.94814 0.0923(35) 83965. 0.07669 0.09344
45810.9 0.94824 0.098(4) 77044. 0.0767 0.0957
45815.45 0.94833 0.097(4) 76213. 0.0767 0.0982
45820.0 0.94843 0.095(4) 79795. 0.0767 0.1012
45824.6 0.94852 0.104(4) 72875. 0.0767 0.1046
45829.2 0.94862 0.111(4) 66767. 0.0767 0.1083
45833.8 0.94871 0.110(4) 66761. 0.0767 0.1123
45838.4 0.94881 0.116(4) 64307. 0.0767 0.1164
45842.95 0.94890 0.128(4) 56506. 0.0767 0.1206
45847.5 0.94900 0.126(4) 59339. 0.0767 0.1246
45852.1 0.94909 0.135(4) 54254. 0.0767 0.1285
45856.7 0.94919 0.126(4) 59982. 0.0767 0.1324
45861.3 0.94928 0.136(4) 54025. 0.0767 0.1364
45865.9 0.94938 0.143(4) 51224. 0.0767 0.1405
45870.5 0.94947 0.148(4) 49485. 0.0767 0.1448
45875.05 0.94957 0.160(5) 44345. 0.0767 0.1491
45879.6 0.94966 0.163(5) 44274. 0.0767 0.1532
45884.2 0.94976 0.168(5) 42562. 0.0767 0.1567
45888.8 0.94985 0.179(5) 39638. 0.0767 0.1592
45893.4 0.94995 0.177(5) 40266. 0.0767 0.1605
45898.0 0.95004 0.173(5) 41435. 0.0767 0.1604
45902.6 0.95014 0.172(5) 41655. 0.0767 0.1588
45907.2 0.95023 0.170(5) 42683. 0.0767 0.1560
45911.8 0.95033 0.167(5) 43389. 0.0767 0.1521
45916.35 0.95042 0.163(5) 43748. 0.0767 0.1475
45920.9 0.95052 0.145(4) 51109. 0.0767 0.1425
45925.5 0.95061 0.139(4) 53960. 0.0767 0.1373
45930.1 0.95071 0.138(4) 54564. 0.0767 0.1321
45934.7 0.95080 0.135(4) 55965. 0.0767 0.1270
45939.3 0.95090 0.129(4) 58315. 0.0767 0.1222
45943.9 0.95099 0.111(4) 70533. 0.0767 0.1178
45948.5 0.95109 0.107(4) 72157. 0.0767 0.1137
45953.1 0.95118 0.110(4) 69563. 0.0767 0.1099
45957.7 0.95128 0.108(4) 71914. 0.0767 0.1066
45962.3 0.95137 0.107(4) 72702. 0.0767 0.1036
45966.9 0.95147 0.098(4) 80820. 0.0767 0.1009
45971.5 0.95156 0.098(4) 79504. 0.0767 0.0985
45976.1 0.95166 0.0898(34) 88245. 0.07667 0.09630
45980.7 0.95175 0.0889(33) 89588. 0.07667 0.09439
45985.3 0.95185 0.0937(35) 83898. 0.07667 0.09267
45989.9 0.95194 0.0845(32) 96527. 0.07667 0.09115
45994.5 0.95204 0.0883(33) 90100. 0.07667 0.08978
45999.1 0.95213 0.0893(34) 88728. 0.07667 0.08856
46003.7 0.95223 0.0876(33) 92460. 0.07667 0.08747
46008.3 0.95232 0.0870(33) 91685. 0.07667 0.08650
46012.9 0.95242 0.0768(31) 104711. 0.07667 0.08563
46017.5 0.95252 0.0809(32) 100149. 0.07667 0.08485
46022.1 0.95261 0.0858(33) 94119. 0.07667 0.08415
46026.7 0.95271 0.0814(32) 98283. 0.07667 0.08352
46031.3 0.95280 0.0835(32) 95063. 0.07667 0.08296
46035.9 0.95290 0.0830(32) 95736. 0.07667 0.08246
46040.5 0.95299 0.0752(30) 109341. 0.07667 0.08200
46045.1 0.95309 0.0822(32) 98275. 0.07667 0.08160
46049.7 0.95318 0.0848(32) 94704. 0.07667 0.08123
46054.3 0.95328 0.0818(32) 99773. 0.07667 0.08090
46058.9 0.95337 0.0798(31) 101627. 0.07666 0.08060
46063.5 0.95347 0.0748(30) 108276. 0.07666 0.08033
46068.1 0.95356 0.0769(31) 105952. 0.07666 0.08008
46072.7 0.95366 0.0856(33) 91440. 0.07666 0.07986
46077.3 0.95375 0.0783(31) 102637. 0.07666 0.07966
46081.9 0.95385 0.0748(30) 108786. 0.07666 0.07948
46086.55 0.95394 0.0744(30) 112138. 0.07666 0.07931
46091.2 0.95404 0.0784(31) 103630. 0.07666 0.07916
46095.8 0.95414 0.0802(32) 100298. 0.07666 0.07902
46100.4 0.95423 0.0805(32) 100007. 0.07666 0.07890
46105.0 0.95433 0.0758(31) 107336. 0.07666 0.07878
46109.6 0.95442 0.0793(31) 101515. 0.07666 0.07868
46114.2 0.95452 0.0739(30) 112667. 0.07666 0.07858
46118.8 0.95461 0.0777(31) 103591. 0.07666 0.07850
46123.4 0.95471 0.0813(32) 100356. 0.07666 0.07842
46128.0 0.95480 0.0810(31) 101776. 0.07666 0.07834
46132.65 0.95490 0.0793(31) 105118. 0.07666 0.07827
46137.3 0.95500 0.0787(31) 104016. 0.07666 0.07821
46141.9 0.95509 0.0812(32) 99554. 0.07666 0.07815
46146.5 0.95519 0.0792(31) 103202. 0.07666 0.07810
46151.1 0.95528 0.0728(30) 112698. 0.07666 0.07805
46155.7 0.95538 0.0711(30) 112900. 0.07666 0.07801
46160.35 0.95547 0.0701(29) 117881. 0.07666 0.07797
46165.0 0.95557 0.0772(31) 103944. 0.07666 0.07793
46169.6 0.95566 0.0767(31) 105318. 0.07666 0.07789
46174.2 0.95576 0.0759(31) 107387. 0.07666 0.07786
46178.8 0.95585 0.0780(31) 102205. 0.07666 0.07783
46183.4 0.95595 0.0745(30) 108568. 0.07666 0.07781
46188.05 0.95605 0.0731(30) 113570. 0.07665 0.07778
46192.7 0.95614 0.0793(32) 100752. 0.07665 0.07776
46197.3 0.95624 0.0746(30) 108436. 0.07665 0.07774
46201.9 0.95633 0.0725(30) 112209. 0.07665 0.07773
46206.5 0.95643 0.0723(29) 115287. 0.07665 0.07771
46211.15 0.95652 0.0777(31) 105305. 0.07665 0.07770
46215.8 0.95662 0.0700(29) 118525. 0.07665 0.07769
46220.4 0.95672 0.0709(30) 114362. 0.07665 0.07768
46225.0 0.95681 0.0757(31) 105765. 0.07665 0.07768
46229.6 0.95691 0.0771(31) 104830. 0.07665 0.07767
46234.25 0.95700 0.0775(31) 105970. 0.07665 0.07767
46238.9 0.95710 0.0771(31) 105606. 0.07665 0.07767
46243.5 0.95719 0.0778(31) 104315. 0.07665 0.07768
46248.1 0.95729 0.0753(31) 107425. 0.07665 0.07768
46252.75 0.95739 0.0728(30) 114075. 0.07665 0.07769
46257.4 0.95748 0.0796(31) 101662. 0.07665 0.07770
46262.0 0.95758 0.0795(31) 101857. 0.07665 0.07772
46266.6 0.95767 0.0795(31) 101314. 0.07665 0.07774
46271.25 0.95777 0.0740(30) 111166. 0.07665 0.07776
46275.9 0.95786 0.0725(30) 111073. 0.07665 0.07779
46280.5 0.95796 0.0723(30) 113541. 0.07665 0.07782
46285.15 0.95806 0.0781(31) 105052. 0.07665 0.07786
46289.8 0.95815 0.0808(32) 99666. 0.07665 0.07790
46294.4 0.95825 0.0737(30) 110871. 0.07665 0.07795
46299.0 0.95834 0.0727(30) 111191. 0.07665 0.07801
46303.65 0.95844 0.0737(30) 111303. 0.07665 0.07808
46308.3 0.95854 0.0739(30) 111048. 0.07665 0.07817
46312.9 0.95863 0.0773(31) 104825. 0.07665 0.07827
46317.55 0.95873 0.0726(29) 115023. 0.07665 0.07840
46322.2 0.95882 0.0817(32) 98541. 0.07665 0.07856
46326.8 0.95892 0.0836(32) 97015. 0.07665 0.07877
46331.45 0.95901 0.0758(30) 110764. 0.07665 0.07903
46336.1 0.95911 0.0776(31) 105141. 0.07665 0.07936
46340.7 0.95921 0.0803(31) 101018. 0.07665 0.07978
46345.35 0.95930 0.0773(30) 107592. 0.07665 0.08032
46350.0 0.95940 0.0743(30) 109992. 0.07665 0.08099
46354.6 0.95949 0.0780(31) 104004. 0.07665 0.08180
46359.25 0.95959 0.0850(32) 95823. 0.07665 0.08278
46363.9 0.95969 0.0833(32) 97685. 0.07665 0.08393
46368.5 0.95978 0.0784(31) 104438. 0.07665 0.08521
46373.15 0.95988 0.0818(32) 100430. 0.07664 0.08663
46377.8 0.95997 0.0826(32) 97895. 0.07664 0.08809
46382.45 0.96007 0.0772(31) 107412. 0.07664 0.08950
46387.1 0.96017 0.0855(33) 94117. 0.07664 0.09073
46391.7 0.96026 0.0829(31) 100900. 0.07664 0.09166
46396.35 0.96036 0.0883(33) 93801. 0.07664 0.09224
46401.0 0.96045 0.0908(34) 88674. 0.07664 0.09246
46405.6 0.96055 0.0859(32) 96212. 0.07664 0.09237
46410.25 0.96065 0.0865(32) 96712. 0.07664 0.09207
46414.9 0.96074 0.0894(33) 91283. 0.07664 0.09162
46419.55 0.96084 0.0927(34) 88234. 0.07664 0.09109
46424.2 0.96094 0.0919(34) 87155. 0.07664 0.09054
46428.85 0.96103 0.0930(34) 86892. 0.07664 0.08997
46433.5 0.96113 0.097(4) 81036. 0.0766 0.0894
46438.1 0.96122 0.0922(34) 86787. 0.07664 0.08881
46442.75 0.96132 0.0886(33) 90243. 0.07664 0.08818
46447.4 0.96142 0.0880(34) 88392. 0.07664 0.08750
46452.05 0.96151 0.0846(33) 94425. 0.07664 0.08679
46456.7 0.96161 0.0856(33) 92730. 0.07664 0.08606
46461.35 0.96170 0.0891(34) 88690. 0.07664 0.08533
46466.0 0.96180 0.0833(32) 95135. 0.07664 0.08461
46470.65 0.96190 0.0788(31) 102682. 0.07664 0.08391
46475.3 0.96199 0.0862(33) 90458. 0.07664 0.08326
46479.95 0.96209 0.0851(33) 92995. 0.07664 0.08265
46484.6 0.96219 0.0870(33) 89184. 0.07664 0.08208
46489.25 0.96228 0.0821(32) 97974. 0.07664 0.08156
46493.9 0.96238 0.0811(32) 94981. 0.07664 0.08109
46498.55 0.96247 0.0804(32) 98283. 0.07664 0.08067
46503.2 0.96257 0.0808(32) 95988. 0.07664 0.08029
46507.85 0.96267 0.0799(32) 99533. 0.07664 0.07995
46512.5 0.96276 0.0843(33) 91724. 0.07664 0.07964
46517.15 0.96286 0.0800(32) 98569. 0.07664 0.07937
46521.8 0.96296 0.0816(33) 94083. 0.07664 0.07913
46526.45 0.96305 0.0785(31) 102684. 0.07664 0.07891
46531.1 0.96315 0.0860(33) 89652. 0.07664 0.07872
46535.75 0.96324 0.0803(32) 99696. 0.07664 0.07854
46540.4 0.96334 0.0826(33) 94539. 0.07664 0.07838
46545.05 0.96344 0.0783(31) 103452. 0.07664 0.07824
46549.7 0.96353 0.0832(33) 93523. 0.07664 0.07812
46554.35 0.96363 0.0803(32) 99815. 0.07664 0.07801
46559.0 0.96373 0.0804(32) 98762. 0.07664 0.07791
46563.65 0.96382 0.0806(32) 100714. 0.07664 0.07782
46568.35 0.96392 0.0775(31) 105325. 0.07664 0.07772
46573.0 0.96402 0.0769(31) 101887. 0.07664 0.07765
46577.65 0.96411 0.0803(32) 97868. 0.07664 0.07759
46582.3 0.96421 0.0834(33) 93038. 0.07664 0.07753
46586.95 0.96430 0.0755(31) 106708. 0.07664 0.07747
46591.6 0.96440 0.0788(32) 99456. 0.07664 0.07742
46596.25 0.96450 0.0812(32) 97317. 0.07664 0.07738
46600.95 0.96459 0.0815(32) 96499. 0.07664 0.07733
46605.6 0.96469 0.0795(32) 97916. 0.07664 0.07730
46610.25 0.96479 0.0807(32) 98978. 0.07664 0.07726
46614.9 0.96488 0.0856(33) 90378. 0.07664 0.07723
46619.55 0.96498 0.0766(31) 104717. 0.07664 0.07721
46624.25 0.96508 0.0802(32) 96311. 0.07664 0.07718
46628.9 0.96517 0.0825(33) 93528. 0.07664 0.07716
46633.55 0.96527 0.0792(31) 102101. 0.07664 0.07713
46638.25 0.96537 0.0817(32) 95004. 0.07664 0.07711
46642.9 0.96546 0.0796(32) 97624. 0.07664 0.07710
46647.55 0.96556 0.0777(31) 103672. 0.07664 0.07708
46652.25 0.96566 0.0840(33) 93886. 0.07664 0.07706
46656.9 0.96575 0.0813(32) 96263. 0.07664 0.07705
46661.55 0.96585 0.0777(31) 101295. 0.07664 0.07704
46666.25 0.96595 0.0751(31) 106376. 0.07664 0.07702
46670.9 0.96604 0.0817(32) 95094. 0.07664 0.07701
46675.55 0.96614 0.0785(31) 102854. 0.07664 0.07700
46680.25 0.96624 0.0793(31) 101190. 0.07664 0.07699
46684.9 0.96633 0.0834(33) 92447. 0.07664 0.07698
46689.55 0.96643 0.0773(31) 102091. 0.07664 0.07697
46694.25 0.96653 0.0753(31) 104739. 0.07664 0.07696
46698.9 0.96662 0.0737(31) 106081. 0.07664 0.07695
46703.55 0.96672 0.0705(30) 114031. 0.07664 0.07695
46708.25 0.96682 0.0805(32) 98559. 0.07664 0.07694
46712.9 0.96691 0.0849(33) 92364. 0.07664 0.07693
46717.55 0.96701 0.0798(32) 98334. 0.07664 0.07693
46722.25 0.96711 0.0766(31) 104075. 0.07664 0.07692
46726.95 0.96720 0.0855(33) 91239. 0.07664 0.07689
46731.6 0.96730 0.0783(31) 102550. 0.07664 0.07689
46736.25 0.96740 0.0781(31) 103754. 0.07664 0.07688
46740.95 0.96749 0.0764(31) 105174. 0.07664 0.07688
46745.6 0.96759 0.0739(31) 106646. 0.07664 0.07687
46750.25 0.96769 0.0787(31) 101060. 0.07664 0.07687
46754.95 0.96778 0.0782(31) 102951. 0.07664 0.07686
46759.65 0.96788 0.0721(30) 113728. 0.07664 0.07686
46764.3 0.96798 0.0825(33) 94478. 0.07664 0.07686
46768.95 0.96807 0.0810(32) 98684. 0.07664 0.07682
46773.65 0.96817 0.0755(31) 107174. 0.07664 0.07681
46778.35 0.96827 0.0747(30) 107615. 0.07664 0.07681
46783.05 0.96836 0.0741(30) 108785. 0.07664 0.07679
46787.7 0.96846 0.0768(31) 103455. 0.07664 0.07678
46792.35 0.96856 0.0774(31) 104758. 0.07664 0.07678
46797.05 0.96865 0.0796(31) 101209. 0.07664 0.07678
46801.75 0.96875 0.0797(31) 101490. 0.07664 0.07678
46806.45 0.96885 0.0805(32) 100064. 0.07664 0.07678
46811.1 0.96894 0.0809(32) 97457. 0.07664 0.07678
46815.75 0.96904 0.0802(32) 99631. 0.07664 0.07678
46820.45 0.96914 0.0790(31) 101102. 0.07664 0.07677
46825.15 0.96924 0.0790(31) 102345. 0.07664 0.07677
46829.85 0.96933 0.0792(31) 101788. 0.07664 0.07677
46834.55 0.96943 0.0759(31) 106620. 0.07664 0.07677
46839.2 0.96953 0.0790(31) 101888. 0.07664 0.07677
46843.85 0.96962 0.0820(32) 99953. 0.07664 0.07677
46848.55 0.96972 0.0802(32) 99931. 0.07664 0.07677
46853.25 0.96982 0.0740(30) 109422. 0.07664 0.07677
46857.95 0.96991 0.0812(32) 97378. 0.07664 0.07677
46862.65 0.97001 0.0771(31) 104389. 0.07664 0.07677
46867.3 0.97011 0.0803(32) 97252. 0.07664 0.07677
46871.95 0.97020 0.0830(32) 96087. 0.07664 0.07677
46876.65 0.97030 0.0803(31) 101633. 0.07664 0.07677
46881.35 0.97040 0.0783(31) 102843. 0.07664 0.07677
46886.05 0.97050 0.0738(30) 109894. 0.07664 0.07677
46890.75 0.97059 0.0774(31) 104420. 0.07664 0.07677
46895.45 0.97069 0.0799(31) 101363. 0.07664 0.07677
46900.15 0.97079 0.0765(31) 105683. 0.07664 0.07677
46904.85 0.97089 0.0730(30) 113604. 0.07664 0.07677
46909.5 0.97098 0.0782(31) 103338. 0.07664 0.07677
46914.15 0.97108 0.0779(31) 104586. 0.07664 0.07677
46918.85 0.97118 0.0765(31) 106614. 0.07664 0.07678
46923.55 0.97127 0.0748(30) 108324. 0.07664 0.07678
46928.25 0.97137 0.0711(29) 116313. 0.07664 0.07678
46932.95 0.97147 0.0751(30) 109579. 0.07664 0.07678
46937.65 0.97156 0.0790(31) 102209. 0.07664 0.07678
46942.35 0.97166 0.0754(30) 109421. 0.07664 0.07678
46947.05 0.97176 0.0791(31) 103034. 0.07664 0.07678
46951.75 0.97186 0.0752(30) 110534. 0.07664 0.07678
46956.45 0.97195 0.0802(32) 100460. 0.07664 0.07679
46961.15 0.97205 0.0806(32) 100557. 0.07664 0.07679
46965.85 0.97215 0.0762(30) 109224. 0.07665 0.07679
46970.55 0.97225 0.0762(30) 108507. 0.07665 0.07679
46975.25 0.97234 0.0746(30) 111132. 0.07665 0.07679
46979.95 0.97244 0.0805(32) 99599. 0.07665 0.07680
46984.65 0.97254 0.0762(30) 107806. 0.07665 0.07680
46989.35 0.97264 0.0807(32) 98468. 0.07665 0.07680
46994.05 0.97273 0.0793(31) 102950. 0.07665 0.07680
46998.75 0.97283 0.0763(30) 108503. 0.07665 0.07681
47003.45 0.97293 0.0780(31) 104829. 0.07665 0.07681
47008.15 0.97302 0.0779(30) 107501. 0.07665 0.07682
47012.85 0.97312 0.0774(30) 108699. 0.07665 0.07682
47017.55 0.97322 0.0753(30) 110931. 0.07665 0.07682
47022.25 0.97332 0.0782(31) 106510. 0.07665 0.07683
47026.95 0.97341 0.0754(30) 111091. 0.07665 0.07683
47031.65 0.97351 0.0746(30) 111077. 0.07665 0.07683
47036.35 0.97361 0.0732(30) 113820. 0.07665 0.07684
47041.05 0.97371 0.0744(30) 110715. 0.07665 0.07684
47045.75 0.97380 0.0811(32) 100432. 0.07665 0.07685
47050.45 0.97390 0.0787(31) 103933. 0.07665 0.07685
47055.15 0.97400 0.0703(29) 119698. 0.07665 0.07686
47059.85 0.97409 0.0694(28) 124316. 0.07665 0.07686
47064.55 0.97419 0.0761(30) 109535. 0.07665 0.07687
47069.25 0.97429 0.0739(29) 115344. 0.07665 0.07687
47073.95 0.97439 0.0767(30) 109575. 0.07665 0.07688
47078.65 0.97448 0.0703(29) 122005. 0.07665 0.07689
47083.35 0.97458 0.0737(29) 115120. 0.07665 0.07691
47088.05 0.97468 0.0782(30) 107557. 0.07665 0.07691
47092.75 0.97478 0.0778(30) 107654. 0.07665 0.07692
47097.5 0.97487 0.0742(29) 117002. 0.07665 0.07693
47102.25 0.97497 0.0768(30) 108986. 0.07665 0.07694
47106.95 0.97507 0.0761(30) 109716. 0.07665 0.07695
47111.65 0.97517 0.0791(31) 105303. 0.07665 0.07696
47116.35 0.97526 0.0822(32) 100117. 0.07665 0.07697
47121.05 0.97536 0.0747(30) 113410. 0.07665 0.07698
47125.75 0.97546 0.0780(31) 106153. 0.07665 0.07699
47130.45 0.97556 0.0793(31) 104561. 0.07665 0.07700
47135.2 0.97565 0.0750(30) 113165. 0.07665 0.07702
47139.95 0.97575 0.0762(30) 109017. 0.07665 0.07703
47144.65 0.97585 0.0782(31) 105978. 0.07665 0.07704
47149.35 0.97595 0.0799(31) 103470. 0.07665 0.07706
47154.05 0.97604 0.0772(30) 108598. 0.07666 0.07708
47158.75 0.97614 0.0766(30) 109146. 0.07666 0.07710
47163.45 0.97624 0.0789(31) 106075. 0.07666 0.07712
47168.2 0.97634 0.0765(30) 109878. 0.07666 0.07714
47172.95 0.97644 0.0708(29) 118410. 0.07666 0.07716
47177.65 0.97653 0.0807(31) 101325. 0.07666 0.07718
47182.35 0.97663 0.0844(32) 95519. 0.07666 0.07721
47187.05 0.97673 0.0770(31) 107355. 0.07666 0.07724
47191.8 0.97683 0.0758(30) 110404. 0.07666 0.07727
47196.55 0.97692 0.0719(29) 117614. 0.07666 0.07730
47201.25 0.97702 0.0758(30) 108282. 0.07666 0.07734
47205.95 0.97712 0.0816(32) 96956. 0.07666 0.07738
47210.65 0.97722 0.0798(31) 103053. 0.07666 0.07743
47215.4 0.97731 0.0793(31) 105390. 0.07666 0.07748
47220.15 0.97741 0.0752(30) 109264. 0.07666 0.07754
47224.85 0.97751 0.0759(30) 108092. 0.07666 0.07760
47229.55 0.97761 0.0824(32) 96741. 0.07666 0.07768
47234.25 0.97771 0.0769(31) 107235. 0.07666 0.07776
47239.0 0.97780 0.0802(31) 102840. 0.07666 0.07786
47243.75 0.97790 0.0787(31) 104008. 0.07666 0.07797
47248.45 0.97800 0.0819(32) 97890. 0.07666 0.07809
47253.15 0.97810 0.0814(32) 98604. 0.07666 0.07824
47257.9 0.97819 0.0781(31) 103695. 0.07666 0.07841
47262.65 0.97829 0.0802(32) 99288. 0.07666 0.07860
47267.35 0.97839 0.0781(31) 103306. 0.07666 0.07883
47272.05 0.97849 0.0746(30) 109054. 0.07666 0.07909
47276.8 0.97859 0.0792(31) 102381. 0.07666 0.07941
47281.55 0.97868 0.0800(32) 99868. 0.07666 0.07981
47286.25 0.97878 0.0744(30) 109729. 0.07667 0.08029
47291.0 0.97888 0.0770(31) 107057. 0.07667 0.08089
47295.75 0.97898 0.0797(31) 101354. 0.07667 0.08163
47300.45 0.97908 0.0809(32) 99324. 0.07667 0.08254
47305.15 0.97917 0.0812(32) 99603. 0.07667 0.08363
47309.9 0.97927 0.0850(32) 97477. 0.07667 0.08495
47314.65 0.97937 0.0950(34) 84767. 0.07667 0.08647
47319.35 0.97947 0.0922(34) 86656. 0.07667 0.08816
47324.1 0.97957 0.0860(32) 95298. 0.07667 0.08999
47328.85 0.97966 0.0941(35) 83498. 0.07667 0.09188
47333.55 0.97976 0.098(4) 80224. 0.0767 0.0937
47338.3 0.97986 0.103(4) 77664. 0.0767 0.0953
47343.05 0.97996 0.104(4) 74806. 0.0767 0.0967
47347.75 0.98005 0.101(4) 78267. 0.0767 0.0978
47352.5 0.98015 0.107(4) 74021. 0.0767 0.0984
47357.25 0.98025 0.110(4) 71515. 0.0767 0.0986
47361.95 0.98035 0.113(4) 67675. 0.0767 0.0984
47366.7 0.98045 0.103(4) 77063. 0.0767 0.0977
47371.45 0.98055 0.106(4) 72034. 0.0767 0.0968
47376.2 0.98064 0.100(4) 79911. 0.0767 0.0956
47380.95 0.98074 0.104(4) 74235. 0.0767 0.0943
47385.65 0.98084 0.105(4) 73823. 0.0767 0.0930
47390.4 0.98094 0.104(4) 76928. 0.0767 0.0916
47395.15 0.98104 0.0971(35) 81531. 0.07668 0.09020
47399.9 0.98113 0.0961(35) 82393. 0.07668 0.08891
47404.65 0.98123 0.097(4) 81034. 0.0767 0.0877
47409.35 0.98133 0.0939(35) 83315. 0.07668 0.08660
47414.1 0.98143 0.0917(34) 87670. 0.07668 0.08558
47418.85 0.98153 0.0882(33) 90673. 0.07668 0.08467
47423.6 0.98163 0.0855(32) 97079. 0.07668 0.08385
47428.35 0.98172 0.0938(34) 85307. 0.07668 0.08311
47433.05 0.98182 0.0892(33) 90040. 0.07668 0.08246
47437.8 0.98192 0.0873(33) 93720. 0.07668 0.08188
47442.55 0.98202 0.0830(32) 99670. 0.07668 0.08136
47447.3 0.98212 0.0831(32) 98972. 0.07668 0.08089
47452.05 0.98221 0.0823(32) 98954. 0.07668 0.08048
47456.8 0.98231 0.0813(31) 101738. 0.07668 0.08012
47461.55 0.98241 0.0846(32) 96126. 0.07668 0.07979
47466.3 0.98251 0.0856(32) 96764. 0.07668 0.07950
47471.05 0.98261 0.0849(32) 97964. 0.07668 0.07924
47475.8 0.98271 0.0816(31) 104244. 0.07668 0.07901
47480.55 0.98280 0.0821(31) 100998. 0.07668 0.07881
47485.25 0.98290 0.0825(32) 100771. 0.07668 0.07863
47490.0 0.98300 0.0772(30) 112382. 0.07669 0.07846
47494.75 0.98310 0.0809(31) 103269. 0.07669 0.07832
47499.5 0.98320 0.0757(30) 114182. 0.07669 0.07819
47504.25 0.98329 0.0840(32) 96224. 0.07669 0.07807
47509.0 0.98339 0.0764(30) 112821. 0.07669 0.07797
47513.75 0.98349 0.0815(31) 102628. 0.07669 0.07788
47518.5 0.98359 0.0757(30) 113436. 0.07669 0.07779
47523.3 0.98369 0.0706(28) 123762. 0.07669 0.07772
47528.05 0.98379 0.0734(29) 115114. 0.07669 0.07765
47532.8 0.98389 0.0696(28) 125869. 0.07669 0.07759
47537.55 0.98398 0.0750(30) 111950. 0.07669 0.07754
47542.3 0.98408 0.0819(31) 101365. 0.07669 0.07749
47547.05 0.98418 0.0763(30) 111067. 0.07669 0.07744
47551.8 0.98428 0.0762(30) 112935. 0.07669 0.07740
47556.55 0.98438 0.0780(30) 109608. 0.07669 0.07737
47561.3 0.98448 0.0769(30) 111361. 0.07669 0.07734
47566.05 0.98457 0.0827(32) 98643. 0.07669 0.07731
47570.8 0.98467 0.0762(30) 112772. 0.07669 0.07728
47575.6 0.98477 0.0759(30) 111863. 0.07670 0.07726
47580.35 0.98487 0.0805(31) 102261. 0.07670 0.07724
47585.1 0.98497 0.0759(30) 114430. 0.07670 0.07722
47589.85 0.98507 0.0811(31) 100945. 0.07670 0.07720
47594.6 0.98517 0.0769(30) 109254. 0.07670 0.07718
47599.4 0.98526 0.0797(31) 105021. 0.07670 0.07717
47604.15 0.98536 0.0773(30) 108005. 0.07670 0.07716
47608.9 0.98546 0.0738(30) 114617. 0.07670 0.07715
47613.65 0.98556 0.0729(29) 115544. 0.07670 0.07714
47618.4 0.98566 0.0731(29) 117257. 0.07670 0.07713
47623.2 0.98576 0.0751(30) 111729. 0.07670 0.07712
47627.95 0.98586 0.0700(29) 120168. 0.07670 0.07711
47632.7 0.98595 0.0736(29) 114934. 0.07670 0.07711
47637.45 0.98605 0.0746(30) 112004. 0.07670 0.07710
47642.2 0.98615 0.0717(29) 117032. 0.07670 0.07710
47647.0 0.98625 0.0748(30) 114567. 0.07670 0.07710
47651.75 0.98635 0.0845(32) 98463. 0.07670 0.07710
47656.5 0.98645 0.0756(30) 113250. 0.07671 0.07709
47661.3 0.98655 0.0718(29) 118992. 0.07671 0.07709
47666.05 0.98664 0.0772(30) 108783. 0.07671 0.07709
47670.8 0.98674 0.0750(30) 114464. 0.07671 0.07710
47675.6 0.98684 0.0766(30) 111106. 0.07671 0.07710
47680.35 0.98694 0.0792(31) 104263. 0.07671 0.07710
47685.1 0.98704 0.0745(29) 115930. 0.07671 0.07710
47689.9 0.98714 0.0765(30) 112558. 0.07671 0.07711
47694.65 0.98724 0.0781(31) 107356. 0.07671 0.07711
47699.4 0.98733 0.0772(30) 109354. 0.07671 0.07712
47704.2 0.98743 0.0734(29) 117234. 0.07671 0.07712
47709.0 0.98753 0.0763(30) 111277. 0.07671 0.07713
47713.75 0.98763 0.0739(29) 115102. 0.07671 0.07714
47718.5 0.98773 0.0733(29) 118378. 0.07671 0.07715
47723.3 0.98783 0.0753(30) 112811. 0.07671 0.07716
47728.05 0.98793 0.0801(31) 102367. 0.07671 0.07717
47732.8 0.98803 0.0738(29) 116277. 0.07672 0.07718
47737.6 0.98813 0.0757(30) 111364. 0.07672 0.07719
47742.4 0.98822 0.0810(31) 104345. 0.07672 0.07721
47747.15 0.98832 0.0815(31) 101984. 0.07672 0.07723
47751.9 0.98842 0.0785(31) 106141. 0.07672 0.07724
47756.7 0.98852 0.0755(30) 109754. 0.07672 0.07727
47761.5 0.98862 0.0717(29) 116331. 0.07672 0.07729
47766.25 0.98872 0.0727(30) 113980. 0.07672 0.07731
47771.0 0.98882 0.0773(31) 105722. 0.07672 0.07734
47775.8 0.98892 0.0724(29) 115133. 0.07672 0.07737
47780.6 0.98902 0.0749(30) 110699. 0.07672 0.07741
47785.35 0.98911 0.0776(31) 105026. 0.07672 0.07744
47790.1 0.98921 0.0786(31) 103680. 0.07672 0.07749
47794.9 0.98931 0.0726(29) 116713. 0.07672 0.07754
47799.7 0.98941 0.0775(30) 109000. 0.07673 0.07760
47804.5 0.98951 0.0787(31) 106619. 0.07673 0.07766
47809.25 0.98961 0.0815(32) 98676. 0.07673 0.07775
47814.0 0.98971 0.0775(30) 109539. 0.07673 0.07785
47818.8 0.98981 0.0813(31) 101061. 0.07673 0.07797
47823.6 0.98991 0.0748(30) 112190. 0.07673 0.07812
47828.4 0.99001 0.0778(31) 105863. 0.07673 0.07831
47833.2 0.99010 0.0777(30) 107629. 0.07673 0.07854
47837.95 0.99020 0.0797(31) 103841. 0.07673 0.07882
47842.7 0.99030 0.0785(30) 109054. 0.07673 0.07915
47847.5 0.99040 0.0849(32) 97439. 0.07673 0.07955
47852.3 0.99050 0.0814(31) 103107. 0.07673 0.08000
47857.1 0.99060 0.0778(30) 110487. 0.07673 0.08050
47861.9 0.99070 0.0828(32) 100334. 0.07673 0.08105
47866.7 0.99080 0.0812(31) 103196. 0.07674 0.08160
47871.45 0.99090 0.0813(31) 103662. 0.07674 0.08213
47876.2 0.99099 0.0836(31) 101412. 0.07674 0.08261
47881.0 0.99109 0.0832(31) 102090. 0.07674 0.08300
47885.8 0.99119 0.0797(31) 107097. 0.07674 0.08329
47890.6 0.99129 0.0798(31) 106861. 0.07674 0.08352
47895.4 0.99139 0.0818(31) 104582. 0.07674 0.08371
47900.2 0.99149 0.0848(32) 99609. 0.07674 0.08390
47905.0 0.99159 0.0845(31) 101759. 0.07674 0.08416
47909.8 0.99169 0.0904(33) 91801. 0.07674 0.08451
47914.55 0.99179 0.0856(32) 97475. 0.07674 0.08501
47919.3 0.99189 0.0840(31) 101037. 0.07674 0.08568
47924.1 0.99199 0.0857(32) 98936. 0.07674 0.08655
47928.9 0.99209 0.0883(33) 93574. 0.07675 0.08762
47933.7 0.99219 0.0839(32) 100434. 0.07675 0.08889
47938.5 0.99228 0.0944(34) 86914. 0.07675 0.09029
47943.3 0.99238 0.0921(33) 90630. 0.07675 0.09175
47948.1 0.99248 0.0909(33) 91987. 0.07675 0.09314
47952.9 0.99258 0.0934(33) 91132. 0.07675 0.09433
47957.7 0.99268 0.0948(33) 89510. 0.07675 0.09518
47962.5 0.99278 0.0944(33) 89417. 0.07675 0.09560
47967.3 0.99288 0.101(4) 80942. 0.0768 0.0956
47972.1 0.99298 0.0956(34) 87374. 0.07675 0.09515
47976.9 0.99308 0.0932(34) 88816. 0.07675 0.09439
47981.7 0.99318 0.0910(33) 92426. 0.07675 0.09341
47986.5 0.99328 0.0906(33) 93213. 0.07675 0.09227
47991.3 0.99338 0.0925(33) 90581. 0.07676 0.09106
47996.1 0.99348 0.0893(33) 93146. 0.07676 0.08983
48000.9 0.99358 0.0813(31) 103265. 0.07676 0.08863
48005.7 0.99368 0.0847(32) 98959. 0.07676 0.08748
48010.5 0.99378 0.0879(32) 94891. 0.07676 0.08641
48015.3 0.99387 0.0824(31) 103770. 0.07676 0.08543
48020.1 0.99397 0.0855(32) 99806. 0.07676 0.08453
48024.9 0.99407 0.0903(33) 91288. 0.07676 0.08373
48029.7 0.99417 0.0792(31) 106980. 0.07676 0.08301
48034.5 0.99427 0.0776(30) 109092. 0.07676 0.08236
48039.3 0.99437 0.0800(31) 106785. 0.07676 0.08179
48044.1 0.99447 0.0840(32) 99773. 0.07676 0.08129
48048.9 0.99457 0.0797(31) 105523. 0.07677 0.08083
48053.7 0.99467 0.0784(30) 107910. 0.07677 0.08043
48058.5 0.99477 0.0797(31) 105083. 0.07677 0.08008
48063.3 0.99487 0.0825(31) 101749. 0.07677 0.07976
48068.1 0.99497 0.0802(31) 105380. 0.07677 0.07948
48072.9 0.99507 0.0737(29) 117060. 0.07677 0.07922
48077.7 0.99517 0.0788(30) 107542. 0.07677 0.07900
48082.5 0.99527 0.0787(30) 109284. 0.07677 0.07880
48087.3 0.99537 0.0786(30) 109564. 0.07677 0.07862
48092.15 0.99547 0.0778(30) 112236. 0.07677 0.07846
48097.0 0.99557 0.0786(30) 108804. 0.07677 0.07833
48101.8 0.99567 0.0791(30) 107703. 0.07678 0.07820
48106.6 0.99576 0.0806(31) 105603. 0.07678 0.07809
48111.4 0.99586 0.0767(30) 112388. 0.07678 0.07800
48116.2 0.99596 0.0793(31) 106670. 0.07678 0.07791
48121.0 0.99606 0.0779(30) 108821. 0.07678 0.07783
48125.8 0.99616 0.0772(30) 108702. 0.07678 0.07775
48130.6 0.99626 0.0777(30) 109879. 0.07678 0.07769
48135.45 0.99636 0.0778(30) 110932. 0.07678 0.07763
48140.3 0.99646 0.0803(31) 104141. 0.07678 0.07758
48145.1 0.99656 0.0846(32) 99160. 0.07678 0.07753
48149.9 0.99666 0.0853(32) 97590. 0.07678 0.07749
48154.7 0.99676 0.0793(31) 106686. 0.07679 0.07745
48159.5 0.99686 0.0770(30) 109962. 0.07679 0.07741
48164.35 0.99696 0.0751(29) 115255. 0.07679 0.07738
48169.2 0.99706 0.0778(30) 110035. 0.07679 0.07735
48174.0 0.99716 0.0799(31) 106727. 0.07679 0.07732
48178.8 0.99726 0.0847(32) 99546. 0.07679 0.07730
48183.6 0.99736 0.0827(31) 103641. 0.07679 0.07728
48188.4 0.99746 0.0842(31) 101081. 0.07679 0.07726
48193.25 0.99756 0.0846(31) 102510. 0.07679 0.07724
48198.1 0.99766 0.0777(30) 112152. 0.07679 0.07722
48202.9 0.99776 0.0802(31) 104834. 0.07679 0.07721
48207.7 0.99786 0.0806(31) 106408. 0.07680 0.07720
48212.5 0.99796 0.0791(30) 108076. 0.07680 0.07718
48217.35 0.99806 0.0752(29) 116017. 0.07680 0.07716
48222.2 0.99816 0.0770(30) 111523. 0.07680 0.07715
48227.0 0.99826 0.0750(29) 115348. 0.07680 0.07714
48231.8 0.99836 0.0827(31) 101556. 0.07680 0.07713
48236.65 0.99846 0.0856(32) 99770. 0.07680 0.07711
48241.5 0.99856 0.0813(31) 105187. 0.07680 0.07711
48246.3 0.99866 0.0763(30) 113720. 0.07680 0.07710
48251.1 0.99876 0.0804(31) 106540. 0.07680 0.07709
48255.9 0.99886 0.0764(30) 113112. 0.07680 0.07709
48260.75 0.99896 0.0757(29) 116630. 0.07681 0.07708
48265.6 0.99906 0.0795(31) 106752. 0.07681 0.07708
48270.4 0.99916 0.0783(30) 110032. 0.07681 0.07707
48275.25 0.99926 0.0789(30) 109793. 0.07681 0.07707
48280.1 0.99936 0.0724(29) 120143. 0.07681 0.07707
48284.9 0.99946 0.0811(31) 105793. 0.07681 0.07706
48289.7 0.99956 0.0834(31) 102388. 0.07681 0.07706
48294.55 0.99966 0.0722(28) 125234. 0.07681 0.07706
48299.4 0.99976 0.0823(31) 103093. 0.07681 0.07706
48304.2 0.99986 0.0819(31) 104507. 0.07681 0.07705
48309.05 0.99996 0.0808(31) 105994. 0.07682 0.07705
48313.9 1.00006 0.0838(31) 101538. 0.07682 0.07705
48318.7 1.00016 0.0803(30) 108303. 0.07682 0.07705
48323.55 1.00026 0.0775(30) 113849. 0.07682 0.07705
48328.4 1.00036 0.0785(30) 110836. 0.07682 0.07705
48333.2 1.00046 0.0776(30) 112197. 0.07682 0.07705
48338.05 1.00056 0.0742(29) 120703. 0.07682 0.07705
48342.9 1.00066 0.0795(30) 108780. 0.07682 0.07705
48347.7 1.00076 0.0777(30) 112012. 0.07682 0.07705
48352.55 1.00086 0.0759(29) 117070. 0.07682 0.07705
48357.4 1.00096 0.0783(30) 108746. 0.07683 0.07705
48362.2 1.00106 0.0734(29) 116796. 0.07683 0.07705
48367.05 1.00116 0.0749(30) 114384. 0.07683 0.07705
48371.9 1.00126 0.0758(30) 112508. 0.07683 0.07705
48376.7 1.00136 0.0807(31) 105121. 0.07683 0.07706
48381.55 1.00146 0.0786(30) 109054. 0.07683 0.07706
48386.4 1.00156 0.0769(30) 109739. 0.07683 0.07706
48391.25 1.00166 0.0746(29) 117425. 0.07683 0.07706
48396.1 1.00176 0.0771(30) 108851. 0.07683 0.07706
48400.9 1.00186 0.0775(30) 108561. 0.07683 0.07706
48405.75 1.00196 0.0757(30) 114763. 0.07684 0.07707
48410.6 1.00206 0.0775(30) 111757. 0.07684 0.07707
48415.45 1.00216 0.0769(29) 116303. 0.07684 0.07707
48420.3 1.00226 0.0836(31) 101387. 0.07684 0.07708
48425.1 1.00236 0.0761(30) 114780. 0.07684 0.07708
48429.95 1.00246 0.0758(29) 114953. 0.07684 0.07708
48434.8 1.00256 0.0760(30) 114514. 0.07684 0.07709
48439.65 1.00266 0.0823(31) 103455. 0.07684 0.07709
48444.5 1.00276 0.0805(31) 106015. 0.07684 0.07709
48449.35 1.00286 0.0746(29) 118704. 0.07685 0.07710
48454.2 1.00296 0.0762(30) 114541. 0.07685 0.07710
48459.0 1.00306 0.0761(30) 114272. 0.07685 0.07711
48463.85 1.00316 0.0723(28) 123412. 0.07685 0.07711
48468.7 1.00326 0.0738(29) 119366. 0.07685 0.07712
48473.55 1.00336 0.0737(29) 121403. 0.07685 0.07713
48478.4 1.00346 0.0745(29) 119064. 0.07685 0.07713
48483.25 1.00356 0.0708(28) 127903. 0.07685 0.07714
48488.1 1.00366 0.0737(29) 118716. 0.07685 0.07714
48492.95 1.00376 0.0736(29) 122410. 0.07685 0.07715
48497.8 1.00386 0.0779(30) 112265. 0.07686 0.07716
48502.65 1.00396 0.0775(30) 114053. 0.07686 0.07717
48507.5 1.00406 0.0755(29) 117370. 0.07686 0.07718
48512.35 1.00416 0.0758(29) 116864. 0.07686 0.07718
48517.2 1.00427 0.0817(31) 104270. 0.07686 0.07719
48522.05 1.00437 0.0768(29) 115620. 0.07686 0.07720
48526.9 1.00447 0.0761(30) 113437. 0.07686 0.07721
48531.75 1.00457 0.0735(29) 122329. 0.07686 0.07723
48536.6 1.00467 0.0806(30) 108359. 0.07686 0.07724
48541.45 1.00477 0.0753(29) 118203. 0.07687 0.07725
48546.35 1.00487 0.0709(28) 126337. 0.07687 0.07726
48551.2 1.00497 0.0724(29) 122398. 0.07687 0.07728
48556.05 1.00507 0.0818(31) 103918. 0.07687 0.07729
48560.9 1.00517 0.0747(29) 116231. 0.07687 0.07731
48565.75 1.00527 0.0756(30) 113312. 0.07687 0.07733
48570.6 1.00537 0.0760(30) 113356. 0.07687 0.07734
48575.45 1.00547 0.0807(31) 106638. 0.07687 0.07736
48580.3 1.00557 0.0808(31) 103775. 0.07687 0.07738
48585.15 1.00567 0.0807(31) 105961. 0.07688 0.07741
48590.05 1.00577 0.0800(30) 108092. 0.07688 0.07743
48594.9 1.00587 0.0768(30) 110035. 0.07688 0.07746
48599.75 1.00597 0.0717(28) 125184. 0.07688 0.07749
48604.6 1.00607 0.0816(31) 103234. 0.07688 0.07752
48609.45 1.00618 0.0763(29) 115013. 0.07688 0.07755
48614.35 1.00628 0.0756(29) 116938. 0.07688 0.07759
48619.2 1.00638 0.0789(30) 109835. 0.07688 0.07763
48624.05 1.00648 0.0738(29) 121767. 0.07688 0.07768
48628.9 1.00658 0.0772(30) 110182. 0.07689 0.07773
48633.75 1.00668 0.0744(29) 119755. 0.07689 0.07779
48638.65 1.00678 0.0792(30) 109180. 0.07689 0.07785
48643.5 1.00688 0.0765(30) 112828. 0.07689 0.07792
48648.35 1.00698 0.0788(30) 112910. 0.07689 0.07801
48653.25 1.00708 0.0783(30) 114453. 0.07689 0.07811
48658.1 1.00718 0.0765(30) 112327. 0.07689 0.07823
48662.95 1.00728 0.0767(30) 113868. 0.07689 0.07837
48667.85 1.00738 0.0731(29) 122689. 0.07689 0.07854
48672.7 1.00748 0.0768(30) 110789. 0.07690 0.07874
48677.55 1.00758 0.0719(28) 124455. 0.07690 0.07898
48682.45 1.00769 0.0773(30) 113345. 0.07690 0.07928
48687.3 1.00779 0.0805(31) 106123. 0.07690 0.07963
48692.15 1.00789 0.0809(30) 107533. 0.07690 0.08005
48697.05 1.00799 0.0814(31) 106397. 0.07690 0.08055
48701.9 1.00809 0.0798(31) 107102. 0.07690 0.08113
48706.75 1.00819 0.0782(30) 113028. 0.07690 0.08181
48711.65 1.00829 0.0820(31) 106178. 0.07691 0.08259
48716.55 1.00839 0.0846(31) 102472. 0.07691 0.08346
48721.4 1.00849 0.0798(30) 110462. 0.07691 0.08440
48726.25 1.00859 0.0809(30) 107883. 0.07691 0.08541
48731.15 1.00869 0.0838(31) 104468. 0.07691 0.08647
48736.05 1.00880 0.0837(31) 104560. 0.07691 0.08758
48740.9 1.00890 0.0888(32) 95375. 0.07691 0.08871
48745.75 1.00900 0.0858(31) 104061. 0.07691 0.08983
48750.65 1.00910 0.0911(32) 96407. 0.07691 0.09093
48755.55 1.00920 0.0928(33) 94234. 0.07692 0.09194
48760.4 1.00930 0.0896(32) 96739. 0.07692 0.09279
48765.25 1.00940 0.0860(31) 103461. 0.07692 0.09344
48770.15 1.00950 0.0868(31) 101680. 0.07692 0.09383
48775.05 1.00960 0.0910(32) 95537. 0.07692 0.09393
48779.9 1.00970 0.0921(33) 93094. 0.07692 0.09375
48784.75 1.00980 0.0861(31) 102507. 0.07692 0.09329
48789.65 1.00991 0.0875(31) 102360. 0.07692 0.09261
48794.55 1.01001 0.0890(32) 100333. 0.07693 0.09176
48799.45 1.01011 0.0887(32) 100306. 0.07693 0.09079
48804.3 1.01021 0.0911(32) 94995. 0.07693 0.08979
48809.15 1.01031 0.0863(31) 102595. 0.07693 0.08878
48814.05 1.01041 0.0893(32) 97670. 0.07693 0.08777
48818.95 1.01051 0.0857(31) 102880. 0.07693 0.08682
48823.85 1.01061 0.0810(30) 109266. 0.07693 0.08594
48828.7 1.01071 0.0814(31) 106176. 0.07693 0.08514
48833.55 1.01081 0.0803(30) 110124. 0.07694 0.08442
48838.45 1.01092 0.0853(31) 103953. 0.07694 0.08377
48843.35 1.01102 0.0847(31) 105741. 0.07694 0.08320
48848.25 1.01112 0.0798(30) 112004. 0.07694 0.08272
48853.15 1.01122 0.0843(31) 102049. 0.07694 0.08232
48858.0 1.01132 0.0816(31) 106074. 0.07694 0.08199
48862.85 1.01142 0.0826(31) 105677. 0.07694 0.08174
48867.75 1.01152 0.0865(32) 100449. 0.07694 0.08156
48872.65 1.01162 0.0865(32) 99636. 0.07695 0.08146
48877.55 1.01173 0.0850(31) 101986. 0.07695 0.08145
48882.45 1.01183 0.0846(31) 101832. 0.07695 0.08152
48887.35 1.01193 0.0812(31) 106012. 0.07695 0.08167
48892.25 1.01203 0.0832(31) 104713. 0.07695 0.08192
48897.1 1.01213 0.0888(32) 96885. 0.07695 0.08225
48901.95 1.01223 0.0869(32) 99401. 0.07695 0.08266
48906.85 1.01233 0.0843(31) 103024. 0.07695 0.08315
48911.75 1.01243 0.0896(32) 95107. 0.07696 0.08370
48916.65 1.01253 0.0898(32) 95489. 0.07696 0.08428
48921.55 1.01264 0.0937(33) 89428. 0.07696 0.08487
48926.45 1.01274 0.0861(32) 99772. 0.07696 0.08547
48931.35 1.01284 0.0840(31) 103184. 0.07696 0.08609
48936.25 1.01294 0.0879(32) 98093. 0.07696 0.08677
48941.15 1.01304 0.0880(32) 97682. 0.07696 0.08754
48946.05 1.01314 0.0873(32) 98907. 0.07696 0.08843
48950.95 1.01324 0.0866(31) 101134. 0.07697 0.08946
48955.85 1.01335 0.0863(32) 100249. 0.07697 0.09060
48960.75 1.01345 0.0854(31) 102499. 0.07697 0.09182
48965.65 1.01355 0.0876(32) 100670. 0.07697 0.09304
48970.5 1.01365 0.0925(33) 92719. 0.07697 0.09414
48975.35 1.01375 0.0898(32) 96948. 0.07697 0.09503
48980.25 1.01385 0.0886(32) 98112. 0.07697 0.09562
48985.15 1.01395 0.0858(31) 104397. 0.07697 0.09585
48990.05 1.01405 0.0914(32) 95391. 0.07698 0.09571
48994.95 1.01416 0.0866(31) 101737. 0.07698 0.09522
48999.85 1.01426 0.0868(32) 100082. 0.07698 0.09444
49004.75 1.01436 0.0834(31) 104239. 0.07698 0.09346
49009.65 1.01446 0.0825(31) 106397. 0.07698 0.09233
49014.55 1.01456 0.0836(31) 107147. 0.07698 0.09114
49019.45 1.01466 0.0843(31) 105706. 0.07698 0.08993
49024.35 1.01476 0.0781(29) 117102. 0.07699 0.08875
49029.3 1.01487 0.0817(30) 110781. 0.07699 0.08761
49034.2 1.01497 0.0827(31) 105819. 0.07699 0.08655
49039.1 1.01507 0.0737(28) 124659. 0.07699 0.08558
49044.05 1.01517 0.0763(29) 118107. 0.07699 0.08469
49048.95 1.01527 0.0803(30) 110478. 0.07699 0.08389
49053.85 1.01538 0.0785(30) 113137. 0.07699 0.08318
49058.75 1.01548 0.0789(30) 113281. 0.07699 0.08255
49063.65 1.01558 0.0790(30) 112846. 0.07700 0.08198
49068.55 1.01568 0.0800(30) 111845. 0.07700 0.08147
49073.45 1.01578 0.0809(30) 111552. 0.07700 0.08103
49078.35 1.01588 0.0819(30) 108606. 0.07700 0.08063
49083.25 1.01598 0.0779(29) 117535. 0.07700 0.08028
49088.15 1.01609 0.0808(30) 111481. 0.07700 0.07996
49093.05 1.01619 0.0789(29) 116124. 0.07700 0.07969
49097.95 1.01629 0.0781(29) 116950. 0.07700 0.07944
49102.85 1.01639 0.0744(29) 122055. 0.07701 0.07922
49107.8 1.01649 0.0709(28) 131739. 0.07701 0.07902
49112.75 1.01659 0.0775(30) 114670. 0.07701 0.07884
49117.65 1.01670 0.0741(28) 125251. 0.07701 0.07869
49122.55 1.01680 0.0784(30) 114588. 0.07701 0.07855
49127.45 1.01690 0.0740(29) 123049. 0.07701 0.07843
49132.35 1.01700 0.0782(29) 116524. 0.07701 0.07831
49137.25 1.01710 0.0822(31) 106911. 0.07702 0.07822
49142.15 1.01720 0.0786(30) 113217. 0.07702 0.07813
49147.1 1.01731 0.0810(30) 111746. 0.07702 0.07805
49152.05 1.01741 0.0806(30) 110839. 0.07702 0.07797
49156.95 1.01751 0.0812(30) 108863. 0.07702 0.07791
49161.85 1.01761 0.0744(29) 119916. 0.07702 0.07785
49166.75 1.01771 0.0758(29) 118127. 0.07702 0.07780
49171.65 1.01781 0.0805(30) 112416. 0.07703 0.07775
49176.6 1.01792 0.0747(29) 122109. 0.07703 0.07771
49181.55 1.01802 0.0715(28) 124527. 0.07703 0.07767
49186.45 1.01812 0.0759(29) 115526. 0.07703 0.07763
49191.35 1.01822 0.0749(29) 121233. 0.07703 0.07760
49196.25 1.01832 0.0792(30) 111179. 0.07703 0.07757
49201.15 1.01842 0.0752(29) 117760. 0.07703 0.07754
49206.1 1.01853 0.0743(29) 122545. 0.07703 0.07752
49211.05 1.01863 0.0793(30) 112308. 0.07704 0.07750
49215.95 1.01873 0.0825(31) 105929. 0.07704 0.07747
49220.85 1.01883 0.0783(30) 113517. 0.07704 0.07746
49225.8 1.01893 0.0794(30) 112255. 0.07704 0.07744
49230.75 1.01904 0.0749(29) 120844. 0.07704 0.07742
49235.65 1.01914 0.0780(30) 112149. 0.07704 0.07741
49240.55 1.01924 0.0763(29) 115345. 0.07704 0.07739
49245.5 1.01934 0.0770(29) 116351. 0.07705 0.07738
49250.45 1.01945 0.0752(29) 118647. 0.07705 0.07737
49255.35 1.01955 0.0740(29) 122075. 0.07705 0.07736
49260.25 1.01965 0.0826(31) 105616. 0.07705 0.07735
49265.2 1.01975 0.0850(31) 102916. 0.07705 0.07734
49270.15 1.01985 0.0818(31) 107099. 0.07705 0.07733
49275.05 1.01995 0.0795(30) 109806. 0.07705 0.07732
49279.95 1.02006 0.0795(30) 110700. 0.07706 0.07731
49284.9 1.02016 0.0795(30) 112789. 0.07706 0.07731
49289.85 1.02026 0.0788(30) 111894. 0.07706 0.07730
49294.75 1.02036 0.0777(30) 113492. 0.07706 0.07729
49299.7 1.02046 0.0798(30) 111110. 0.07706 0.07729
49304.65 1.02057 0.0829(31) 105712. 0.07706 0.07728
49309.55 1.02067 0.0821(31) 106436. 0.07706 0.07728
49314.45 1.02077 0.0795(30) 110697. 0.07707 0.07727
49319.4 1.02087 0.0802(30) 111607. 0.07707 0.07727
49324.35 1.02098 0.0823(31) 107192. 0.07707 0.07726
49329.25 1.02108 0.0830(31) 105177. 0.07707 0.07726
49334.2 1.02118 0.0764(29) 119429. 0.07707 0.07726
49339.15 1.02128 0.0769(29) 115921. 0.07707 0.07725
49344.05 1.02138 0.0765(29) 115878. 0.07707 0.07725
49349.0 1.02149 0.0771(29) 116320. 0.07708 0.07725
49353.95 1.02159 0.0805(30) 110452. 0.07708 0.07724
49358.85 1.02169 0.0807(30) 109828. 0.07708 0.07724
49363.8 1.02179 0.0745(29) 121443. 0.07708 0.07724
49368.75 1.02189 0.0737(29) 121191. 0.07708 0.07723
49373.7 1.02200 0.0724(28) 126290. 0.07708 0.07723
49378.65 1.02210 0.0776(30) 112448. 0.07708 0.07723
49383.55 1.02220 0.0819(31) 106101. 0.07709 0.07723
49388.5 1.02230 0.0792(30) 114609. 0.07709 0.07723
49393.45 1.02241 0.0805(30) 108878. 0.07709 0.07722
49398.4 1.02251 0.0755(29) 120809. 0.07709 0.07722
49403.35 1.02261 0.0801(30) 110997. 0.07709 0.07722
49408.25 1.02271 0.0803(30) 108475. 0.07709 0.07722
49413.2 1.02281 0.0682(27) 134801. 0.07709 0.07722
49418.15 1.02292 0.0760(29) 115433. 0.07710 0.07722
49423.1 1.02302 0.0809(30) 109461. 0.07710 0.07722
49428.05 1.02312 0.0798(30) 110367. 0.07710 0.07722
49432.95 1.02322 0.0788(30) 111412. 0.07710 0.07721
49437.9 1.02333 0.0762(29) 117778. 0.07710 0.07721
49442.85 1.02343 0.0786(30) 113302. 0.07710 0.07721
49447.8 1.02353 0.0759(29) 119391. 0.07710 0.07721
49452.75 1.02363 0.0696(28) 129392. 0.07711 0.07721
49457.7 1.02374 0.0719(28) 125469. 0.07711 0.07721
49462.65 1.02384 0.0764(29) 118131. 0.07711 0.07721
49467.6 1.02394 0.0778(29) 115295. 0.07711 0.07721
49472.55 1.02404 0.0770(30) 114730. 0.07711 0.07721
49477.5 1.02415 0.0749(29) 121969. 0.07711 0.07721
49482.45 1.02425 0.0797(30) 110976. 0.07711 0.07721
49487.35 1.02435 0.0806(30) 109169. 0.07712 0.07721
49492.3 1.02445 0.0785(30) 112634. 0.07712 0.07721
49497.25 1.02455 0.0795(30) 109974. 0.07712 0.07721
49502.2 1.02466 0.0801(30) 111325. 0.07712 0.07721
49507.15 1.02476 0.0834(31) 103491. 0.07712 0.07721
49512.1 1.02486 0.0798(30) 111927. 0.07712 0.07721
49517.1 1.02497 0.0776(29) 116176. 0.07712 0.07721
49522.05 1.02507 0.0758(29) 117942. 0.07713 0.07721
49527.0 1.02517 0.0751(29) 120356. 0.07713 0.07721
49531.95 1.02527 0.0787(30) 113652. 0.07713 0.07721
49536.9 1.02538 0.0766(29) 119912. 0.07713 0.07721
49541.85 1.02548 0.0788(30) 112484. 0.07713 0.07721
49546.8 1.02558 0.0772(29) 119680. 0.07713 0.07721
49551.75 1.02568 0.0818(30) 107956. 0.07714 0.07721
49556.7 1.02579 0.0764(29) 119030. 0.07714 0.07721
49561.65 1.02589 0.0816(30) 108613. 0.07714 0.07721
49566.6 1.02599 0.0819(30) 108303. 0.07714 0.07721
49571.55 1.02609 0.0777(30) 113874. 0.07714 0.07721
49576.5 1.02620 0.0806(30) 110245. 0.07714 0.07721
49581.5 1.02630 0.0734(28) 124166. 0.07714 0.07723
49586.45 1.02640 0.0732(29) 121564. 0.07715 0.07723
49591.4 1.02650 0.0750(29) 121560. 0.07715 0.07723
49596.35 1.02661 0.0803(30) 110908. 0.07715 0.07723
49601.3 1.02671 0.0771(29) 117565. 0.07715 0.07723
49606.3 1.02681 0.0731(28) 125488. 0.07715 0.07723
49611.25 1.02691 0.0780(30) 112035. 0.07715 0.07723
49616.2 1.02702 0.0805(30) 109143. 0.07715 0.07723
49621.15 1.02712 0.0822(30) 107542. 0.07716 0.07723
49626.1 1.02722 0.0798(30) 113668. 0.07716 0.07723
49631.1 1.02733 0.0801(30) 113795. 0.07716 0.07723
49636.05 1.02743 0.0814(30) 109166. 0.07716 0.07723
49641.0 1.02753 0.0801(30) 112575. 0.07716 0.07723
49646.0 1.02763 0.0797(30) 113423. 0.07716 0.07727
49650.95 1.02774 0.0761(29) 116159. 0.07717 0.07726
49655.9 1.02784 0.0790(30) 113066. 0.07717 0.07726
49660.9 1.02794 0.0855(31) 103512. 0.07717 0.07726
49665.85 1.02804 0.0805(30) 110054. 0.07717 0.07726
49670.8 1.02815 0.0817(30) 108088. 0.07717 0.07726
49675.8 1.02825 0.0814(30) 108930. 0.07717 0.07730
49680.75 1.02835 0.0845(31) 103766. 0.07717 0.07730
49685.7 1.02846 0.0790(29) 115573. 0.07718 0.07731
49690.7 1.02856 0.0755(29) 121035. 0.07718 0.07731
49695.65 1.02866 0.0818(30) 109139. 0.07718 0.07731
49700.6 1.02876 0.0839(30) 107864. 0.07718 0.07731
49705.6 1.02887 0.0817(30) 112372. 0.07718 0.07732
49710.55 1.02897 0.0796(30) 113516. 0.07718 0.07732
49715.5 1.02907 0.0805(30) 111387. 0.07718 0.07732
49720.5 1.02918 0.0786(29) 118787. 0.07719 0.07732
49725.5 1.02928 0.0825(30) 112026. 0.07719 0.07733
49730.45 1.02938 0.0847(31) 105403. 0.07719 0.07733
49735.4 1.02948 0.0848(31) 107251. 0.07719 0.07733
49740.4 1.02959 0.0836(30) 109744. 0.07719 0.07733
49745.35 1.02969 0.0776(29) 117200. 0.07719 0.07734
49750.3 1.02979 0.0778(29) 116609. 0.07720 0.07734
49755.3 1.02990 0.0728(28) 128307. 0.07720 0.07734
49760.3 1.03000 0.0754(29) 121146. 0.07720 0.07734
49765.3 1.03010 0.0730(28) 129098. 0.07720 0.07735
49770.25 1.03021 0.0791(30) 113658. 0.07720 0.07735
49775.2 1.03031 0.0747(28) 123386. 0.07720 0.07735
49780.2 1.03041 0.0740(28) 125751. 0.07721 0.07735
49785.2 1.03052 0.0754(28) 123697. 0.07721 0.07736
49790.15 1.03062 0.0781(29) 115620. 0.07721 0.07736
49795.1 1.03072 0.0768(29) 120565. 0.07721 0.07736
49800.1 1.03082 0.0744(28) 125885. 0.07721 0.07737
49805.1 1.03093 0.0794(30) 113751. 0.07721 0.07737
49810.1 1.03103 0.0780(29) 117546. 0.07721 0.07737
49815.05 1.03113 0.0803(30) 112153. 0.07722 0.07737
49820.0 1.03124 0.0777(29) 117903. 0.07722 0.07738
49825.0 1.03134 0.0770(29) 119045. 0.07722 0.07738
49830.0 1.03144 0.0795(30) 113259. 0.07722 0.07738
49835.0 1.03155 0.0759(29) 121131. 0.07722 0.07739
49840.0 1.03165 0.0770(29) 119649. 0.07722 0.07743
49844.95 1.03175 0.0758(29) 119899. 0.07723 0.07743
49849.9 1.03186 0.0770(29) 117875. 0.07723 0.07744
49854.9 1.03196 0.0784(29) 116365. 0.07723 0.07744
49859.9 1.03206 0.0778(29) 118185. 0.07723 0.07744
49864.9 1.03217 0.0789(29) 114921. 0.07723 0.07752
49869.9 1.03227 0.0794(30) 113006. 0.07723 0.07752
49874.9 1.03237 0.0746(29) 122089. 0.07723 0.07753
49879.85 1.03248 0.0758(29) 115849. 0.07724 0.07753
49884.8 1.03258 0.0736(28) 124262. 0.07724 0.07754
49889.8 1.03268 0.0836(31) 106990. 0.07724 0.07755
49894.8 1.03278 0.0785(29) 117413. 0.07724 0.07756
49899.8 1.03289 0.0791(30) 114842. 0.07724 0.07756
49904.8 1.03299 0.0808(30) 111960. 0.07724 0.07757
49909.8 1.03310 0.0761(29) 119740. 0.07725 0.07757
49914.8 1.03320 0.0743(28) 125266. 0.07725 0.07758
49919.8 1.03330 0.0771(29) 121570. 0.07725 0.07759
49924.8 1.03341 0.0785(29) 118706. 0.07725 0.07759
49929.75 1.03351 0.0791(29) 115669. 0.07725 0.07760
49934.7 1.03361 0.0776(29) 119458. 0.07725 0.07761
49939.7 1.03371 0.0778(29) 119268. 0.07726 0.07761
49944.7 1.03382 0.0793(29) 115423. 0.07726 0.07762
49949.7 1.03392 0.0757(29) 122265. 0.07726 0.07763
49954.7 1.03402 0.0780(29) 118140. 0.07726 0.07763
49959.7 1.03413 0.0773(29) 118159. 0.07726 0.07764
49964.7 1.03423 0.0787(30) 114375. 0.07726 0.07765
49969.7 1.03434 0.0775(29) 119995. 0.07726 0.07766
49974.7 1.03444 0.0757(28) 125310. 0.07727 0.07766
49979.7 1.03454 0.0804(29) 115526. 0.07727 0.07767
49984.7 1.03465 0.0825(30) 112227. 0.07727 0.07768
49989.7 1.03475 0.0801(29) 117229. 0.07727 0.07769
49994.7 1.03485 0.0776(29) 121602. 0.07727 0.07770
49999.7 1.03496 0.0785(29) 118485. 0.07727 0.07770
50004.7 1.03506 0.0782(29) 118547. 0.07728 0.07771
50009.7 1.03516 0.0757(29) 122876. 0.07728 0.07772
50014.7 1.03527 0.0815(30) 110969. 0.07728 0.07773
50019.7 1.03537 0.0814(30) 110603. 0.07728 0.07774
50024.7 1.03547 0.0728(28) 127470. 0.07728 0.07775
50029.7 1.03558 0.0740(28) 124222. 0.07728 0.07776
50034.7 1.03568 0.0772(29) 119557. 0.07729 0.07777
50039.7 1.03578 0.0817(30) 109455. 0.07729 0.07778
50044.7 1.03589 0.0750(29) 122787. 0.07729 0.07779
50049.7 1.03599 0.0746(28) 124824. 0.07729 0.07780
50054.7 1.03609 0.0803(30) 112900. 0.07729 0.07781
50059.7 1.03620 0.0776(29) 117756. 0.07729 0.07782
50064.7 1.03630 0.0804(30) 111848. 0.07730 0.07783
50069.7 1.03641 0.0761(29) 121512. 0.07730 0.07785
50074.75 1.03651 0.0747(28) 125029. 0.07730 0.07786
50079.8 1.03661 0.0824(30) 108745. 0.07730 0.07787
50084.8 1.03672 0.0792(30) 114230. 0.07730 0.07788
50089.8 1.03682 0.0771(29) 118515. 0.07730 0.07790
50094.8 1.03693 0.0759(29) 120793. 0.07730 0.07791
50099.8 1.03703 0.0792(30) 113304. 0.07731 0.07792
50104.8 1.03713 0.0826(30) 108179. 0.07731 0.07794
50109.8 1.03724 0.0811(30) 112082. 0.07731 0.07795
50114.8 1.03734 0.0818(30) 110463. 0.07731 0.07797
50119.8 1.03744 0.0771(29) 119265. 0.07731 0.07798
50124.85 1.03755 0.0812(30) 114263. 0.07731 0.07800
50129.9 1.03765 0.0819(30) 112130. 0.07732 0.07801
50134.9 1.03776 0.0788(29) 117379. 0.07732 0.07803
50139.9 1.03786 0.0767(29) 121272. 0.07732 0.07805
50144.9 1.03796 0.0769(29) 117988. 0.07732 0.07806
50149.9 1.03807 0.0776(29) 116960. 0.07732 0.07808
50154.9 1.03817 0.0835(30) 108929. 0.07732 0.07810
50159.95 1.03827 0.0778(29) 121537. 0.07733 0.07812
50165.0 1.03838 0.0746(28) 124741. 0.07733 0.07814
50170.0 1.03848 0.0785(29) 118594. 0.07733 0.07816
50175.0 1.03859 0.0823(30) 112076. 0.07733 0.07818
50180.0 1.03869 0.0800(30) 114193. 0.07733 0.07821
50185.0 1.03879 0.0782(29) 117294. 0.07733 0.07823
50190.05 1.03890 0.0732(28) 131135. 0.07734 0.07826
50195.1 1.03900 0.0771(29) 120702. 0.07734 0.07828
50200.1 1.03911 0.0783(29) 120079. 0.07734 0.07831
50205.1 1.03921 0.0826(30) 112368. 0.07734 0.07833
50210.1 1.03931 0.0810(29) 115282. 0.07734 0.07836
50215.15 1.03942 0.0808(30) 114384. 0.07734 0.07839
50220.2 1.03952 0.0790(29) 117313. 0.07735 0.07842
50225.2 1.03962 0.0793(29) 117017. 0.07735 0.07845
50230.2 1.03973 0.0747(28) 125154. 0.07735 0.07849
50235.25 1.03983 0.0739(28) 129355. 0.07735 0.07852
50240.3 1.03994 0.0803(30) 114658. 0.07735 0.07856
50245.3 1.04004 0.0769(28) 123415. 0.07735 0.07860
50250.3 1.04014 0.0799(29) 115524. 0.07736 0.07864
50255.35 1.04025 0.0748(28) 129685. 0.07736 0.07868
50260.4 1.04035 0.0778(29) 118156. 0.07736 0.07873
50265.4 1.04046 0.0746(28) 124661. 0.07736 0.07877
50270.4 1.04056 0.0774(29) 121385. 0.07736 0.07882
50275.45 1.04067 0.0791(29) 116584. 0.07736 0.07888
50280.5 1.04077 0.0751(29) 123113. 0.07737 0.07893
50285.5 1.04087 0.0795(29) 116830. 0.07737 0.07899
50290.5 1.04098 0.0769(28) 123142. 0.07737 0.07905
50295.55 1.04108 0.0748(28) 128270. 0.07737 0.07912
50300.6 1.04119 0.0801(30) 114641. 0.07737 0.07919
50305.6 1.04129 0.0744(28) 127183. 0.07737 0.07926
50310.65 1.04139 0.0791(29) 118836. 0.07738 0.07934
50315.7 1.04150 0.0810(30) 114089. 0.07738 0.07942
50320.7 1.04160 0.0797(29) 115731. 0.07738 0.07951
50325.75 1.04171 0.0759(28) 123303. 0.07738 0.07961
50330.8 1.04181 0.0750(28) 123642. 0.07738 0.07972
50335.8 1.04191 0.0760(29) 121976. 0.07738 0.07983
50340.85 1.04202 0.0755(28) 127252. 0.07739 0.07995
50345.9 1.04212 0.0825(30) 111998. 0.07739 0.08009
50350.9 1.04223 0.0854(31) 105586. 0.07739 0.08023
50355.95 1.04233 0.0777(29) 122971. 0.07739 0.08039
50361.0 1.04244 0.0838(30) 108435. 0.07739 0.08057
50366.0 1.04254 0.0873(31) 103457. 0.07739 0.08077
50371.05 1.04264 0.0811(29) 115447. 0.07739 0.08099
50376.1 1.04275 0.0839(31) 107382. 0.07740 0.08125
50381.1 1.04285 0.0845(31) 106195. 0.07740 0.08154
50386.15 1.04296 0.0809(30) 113125. 0.07740 0.08189
50391.2 1.04306 0.0829(30) 107520. 0.07740 0.08231
50396.25 1.04317 0.0833(30) 109786. 0.07740 0.08281
50401.3 1.04327 0.0870(31) 103677. 0.07740 0.08342
50406.3 1.04337 0.0860(31) 104920. 0.07741 0.08416
50411.35 1.04348 0.0884(31) 103026. 0.07741 0.08506
50416.4 1.04358 0.0902(32) 99447. 0.07741 0.08614
50421.45 1.04369 0.0883(31) 102706. 0.07741 0.08742
50426.5 1.04379 0.0932(32) 95171. 0.07741 0.08893
50431.5 1.04390 0.0940(32) 95561. 0.07741 0.09063
50436.55 1.04400 0.0928(32) 97877. 0.07742 0.09255
50441.6 1.04410 0.0969(33) 91364. 0.07742 0.09464
50446.65 1.04421 0.1013(33) 89292. 0.07742 0.09680
50451.7 1.04431 0.113(4) 76929. 0.0774 0.0989
50456.75 1.04442 0.1079(35) 82765. 0.07742 0.10095
50461.8 1.04452 0.1077(35) 82077. 0.07742 0.10276
50466.85 1.04463 0.1049(34) 86768. 0.07743 0.10440
50471.9 1.04473 0.1064(35) 83538. 0.07743 0.10595
50476.95 1.04484 0.1063(34) 86304. 0.07743 0.10756
50482.0 1.04494 0.114(4) 77783. 0.0774 0.1094
50487.05 1.04505 0.1098(35) 82585. 0.07743 0.11156
50492.1 1.04515 0.116(4) 76444. 0.0774 0.1142
50497.15 1.04525 0.117(4) 77997. 0.0774 0.1174
50502.2 1.04536 0.120(4) 74412. 0.0774 0.1212
50507.25 1.04546 0.121(4) 74254. 0.0774 0.1255
50512.3 1.04557 0.133(4) 65708. 0.0774 0.1301
50517.35 1.04567 0.133(4) 66655. 0.0774 0.1346
50522.4 1.04578 0.137(4) 63886. 0.0774 0.1389
50527.45 1.04588 0.143(4) 62719. 0.0774 0.1427
50532.5 1.04599 0.159(4) 53795. 0.0774 0.1459
50537.55 1.04609 0.151(4) 59315. 0.0775 0.1484
50542.6 1.04620 0.158(4) 54925. 0.0775 0.1503
50547.65 1.04630 0.151(4) 59204. 0.0775 0.1513
50552.7 1.04640 0.152(4) 57770. 0.0775 0.1512
50557.75 1.04651 0.145(4) 61553. 0.0775 0.1501
50562.8 1.04661 0.144(4) 60559. 0.0775 0.1480
50567.85 1.04672 0.137(4) 65332. 0.0775 0.1449
50572.95 1.04682 0.137(4) 65172. 0.0775 0.1411
50578.0 1.04693 0.138(4) 63360. 0.0775 0.1370
50583.05 1.04703 0.126(4) 71673. 0.0775 0.1326
50588.1 1.04714 0.127(4) 68967. 0.0775 0.1283
50593.15 1.04724 0.123(4) 73219. 0.0775 0.1241
50598.2 1.04735 0.116(4) 77562. 0.0775 0.1200
50603.25 1.04745 0.1114(35) 82015. 0.07747 0.11633
50608.35 1.04756 0.1095(35) 83872. 0.07747 0.11292
50613.4 1.04766 0.1083(35) 82648. 0.07748 0.10990
50618.45 1.04777 0.0993(33) 92637. 0.07748 0.10723
50623.55 1.04787 0.0946(32) 99634. 0.07748 0.10488
50628.6 1.04798 0.1005(33) 89357. 0.07748 0.10288
50633.65 1.04808 0.0953(32) 96136. 0.07748 0.10119
50638.7 1.04819 0.0938(32) 97179. 0.07748 0.09980
50643.75 1.04829 0.0897(31) 104778. 0.07749 0.09869
50648.85 1.04840 0.0899(31) 104913. 0.07749 0.09785
50653.9 1.04850 0.0955(32) 96357. 0.07749 0.09730
50658.95 1.04860 0.0932(31) 100816. 0.07749 0.09703
50664.05 1.04871 0.0938(32) 98271. 0.07749 0.09708
50669.1 1.04881 0.0927(32) 99778. 0.07749 0.09749
50674.15 1.04892 0.0938(32) 99385. 0.07750 0.09829
50679.25 1.04902 0.0939(32) 98411. 0.07750 0.09959
50684.3 1.04913 0.0955(32) 95049. 0.07750 0.10143
50689.35 1.04923 0.0945(32) 98048. 0.07750 0.10394
50694.45 1.04934 0.0965(32) 95807. 0.07750 0.10724
50699.55 1.04944 0.1054(34) 86493. 0.07750 0.11141
50704.6 1.04955 0.112(4) 80305. 0.0775 0.1165
50709.65 1.04965 0.114(4) 79339. 0.0775 0.1225
50714.75 1.04976 0.125(4) 71254. 0.0775 0.1297
50719.8 1.04986 0.140(4) 61863. 0.0775 0.1377
50724.85 1.04997 0.147(4) 59454. 0.0775 0.1466
50729.95 1.05007 0.150(4) 58862. 0.0775 0.1560
50735.05 1.05018 0.165(4) 52061. 0.0775 0.1653
50740.1 1.05028 0.179(5) 46985. 0.0775 0.1740
50745.15 1.05039 0.183(5) 46552. 0.0775 0.1814
50750.25 1.05049 0.185(5) 46260. 0.0775 0.1873
50755.3 1.05060 0.203(5) 40293. 0.0775 0.1915
50760.35 1.05070 0.204(5) 40931. 0.0775 0.1942
50765.45 1.05081 0.201(5) 41847. 0.0775 0.1957
50770.55 1.05091 0.198(5) 42803. 0.0775 0.1960
50775.65 1.05102 0.202(5) 41547. 0.0775 0.1953
50780.7 1.05112 0.205(5) 40072. 0.0775 0.1935
50785.75 1.05123 0.196(5) 42953. 0.0775 0.1904
50790.85 1.05134 0.196(5) 42929. 0.0775 0.1861
50795.95 1.05144 0.184(5) 46556. 0.0775 0.1806
50801.05 1.05155 0.185(5) 45621. 0.0775 0.1743
50806.1 1.05165 0.175(5) 48268. 0.0775 0.1675
50811.15 1.05176 0.164(4) 52923. 0.0775 0.1605
50816.25 1.05186 0.153(4) 57827. 0.0775 0.1534
50821.35 1.05197 0.149(4) 58838. 0.0775 0.1465
50826.45 1.05207 0.138(4) 64784. 0.0775 0.1398
50831.5 1.05218 0.134(4) 64999. 0.0775 0.1337
50836.55 1.05228 0.127(4) 70577. 0.0775 0.1280
50841.65 1.05239 0.121(4) 73996. 0.0776 0.1228
50846.75 1.05249 0.114(4) 79907. 0.0776 0.1181
50851.85 1.05260 0.1100(34) 84578. 0.07755 0.11382
50856.95 1.05270 0.118(4) 76183. 0.0776 0.1100
50862.0 1.05281 0.112(4) 80757. 0.0776 0.1067
50867.05 1.05291 0.1024(33) 90223. 0.07756 0.10372
50872.15 1.05302 0.1008(33) 91308. 0.07756 0.10107
50877.25 1.05312 0.1022(33) 90158. 0.07756 0.09871
50882.35 1.05323 0.0996(33) 93744. 0.07756 0.09663
50887.45 1.05333 0.0924(31) 101433. 0.07757 0.09478
50892.55 1.05344 0.0884(30) 107595. 0.07757 0.09314
50897.65 1.05355 0.0923(32) 100552. 0.07757 0.09169
50902.75 1.05365 0.0901(31) 102735. 0.07757 0.09041
50907.8 1.05376 0.0923(32) 99559. 0.07757 0.08927
50912.85 1.05386 0.0897(31) 104872. 0.07758 0.08826
50917.95 1.05397 0.0915(32) 98785. 0.07758 0.08736
50923.05 1.05407 0.0887(31) 102397. 0.07758 0.08655
50928.15 1.05418 0.0900(31) 101552. 0.07758 0.08583
50933.25 1.05428 0.0896(31) 102586. 0.07758 0.08519
50938.35 1.05439 0.0918(32) 97823. 0.07758 0.08461
50943.45 1.05449 0.0843(30) 109978. 0.07759 0.08409
50948.55 1.05460 0.0872(31) 104837. 0.07759 0.08363
50953.65 1.05471 0.0851(30) 108520. 0.07759 0.08321
50958.75 1.05481 0.0873(31) 103358. 0.07759 0.08284
50963.85 1.05492 0.0864(31) 103491. 0.07759 0.08250
50968.95 1.05502 0.0795(29) 117414. 0.07759 0.08220
50974.05 1.05513 0.0834(30) 111263. 0.07760 0.08192
50979.15 1.05523 0.0892(31) 101161. 0.07760 0.08167
50984.25 1.05534 0.0834(30) 109527. 0.07760 0.08144
50989.35 1.05544 0.0830(30) 108427. 0.07760 0.08124
50994.45 1.05555 0.0820(30) 110804. 0.07760 0.08105
50999.55 1.05566 0.0831(30) 110983. 0.07760 0.08088
51004.65 1.05576 0.0817(30) 113695. 0.07761 0.08072
51009.75 1.05587 0.0826(30) 111300. 0.07761 0.08058
51014.85 1.05597 0.0848(30) 109770. 0.07761 0.08044
51019.95 1.05608 0.0795(29) 119393. 0.07761 0.08032
51025.05 1.05618 0.0835(30) 111316. 0.07761 0.08021
51030.15 1.05629 0.0827(30) 114620. 0.07761 0.08011
51035.25 1.05639 0.0832(30) 112366. 0.07762 0.08001
51040.35 1.05650 0.0831(30) 112665. 0.07762 0.07992
51045.45 1.05661 0.0813(29) 116539. 0.07762 0.07984
51050.55 1.05671 0.0826(30) 114187. 0.07762 0.07977
51055.65 1.05682 0.0801(29) 118409. 0.07762 0.07970
51060.75 1.05692 0.0785(29) 122316. 0.07762 0.07963
51065.85 1.05703 0.0795(29) 119866. 0.07763 0.07957
51070.95 1.05713 0.0787(29) 121382. 0.07763 0.07951
51076.05 1.05724 0.0828(29) 115568. 0.07763 0.07946
51081.15 1.05734 0.0826(30) 114750. 0.07763 0.07941
51086.25 1.05745 0.0780(29) 122813. 0.07763 0.07937
51091.35 1.05756 0.0772(29) 122808. 0.07763 0.07932
51096.45 1.05766 0.0779(29) 122016. 0.07764 0.07928
51101.6 1.05777 0.0759(28) 130330. 0.07764 0.07925
51106.75 1.05787 0.0803(29) 119657. 0.07764 0.07921
51111.85 1.05798 0.0775(28) 125406. 0.07764 0.07918
51116.95 1.05809 0.0789(29) 121287. 0.07764 0.07915
51122.05 1.05819 0.0762(28) 127923. 0.07764 0.07912
51127.15 1.05830 0.0777(29) 122094. 0.07765 0.07909
51132.25 1.05840 0.0766(28) 125576. 0.07765 0.07907
51137.35 1.05851 0.0809(29) 117992. 0.07765 0.07905
51142.5 1.05861 0.0792(29) 122040. 0.07765 0.07903
51147.65 1.05872 0.0749(28) 129858. 0.07765 0.07901
51152.75 1.05883 0.0783(29) 122659. 0.07765 0.07899
51157.85 1.05893 0.0796(29) 121346. 0.07766 0.07897
51162.95 1.05904 0.0756(28) 130256. 0.07766 0.07896
51168.05 1.05914 0.0744(28) 130005. 0.07766 0.07895
51173.2 1.05925 0.0725(27) 135976. 0.07766 0.07894
51178.35 1.05936 0.0770(28) 124046. 0.07766 0.07893
51183.45 1.05946 0.0755(28) 127124. 0.07766 0.07892
51188.55 1.05957 0.0773(29) 123067. 0.07767 0.07891
51193.65 1.05967 0.0778(28) 123937. 0.07767 0.07891
51198.75 1.05978 0.0779(28) 123247. 0.07767 0.07890
51203.9 1.05989 0.0769(28) 127079. 0.07767 0.07890
51209.05 1.05999 0.0771(28) 124742. 0.07767 0.07890
51214.15 1.06010 0.0785(29) 121611. 0.07768 0.07890
51219.25 1.06020 0.0777(28) 125463. 0.07768 0.07890
51224.4 1.06031 0.0782(28) 123989. 0.07768 0.07890
51229.55 1.06042 0.0782(29) 121120. 0.07768 0.07891
51234.65 1.06052 0.0738(28) 130388. 0.07768 0.07891
51239.75 1.06063 0.0784(29) 121433. 0.07768 0.07892
51244.85 1.06073 0.0843(30) 112858. 0.07769 0.07893
51250.0 1.06084 0.0777(28) 127280. 0.07769 0.07894
51255.15 1.06095 0.0768(28) 124681. 0.07769 0.07896
51260.25 1.06105 0.0756(28) 126840. 0.07769 0.07897
51265.35 1.06116 0.0790(29) 119762. 0.07769 0.07899
51270.5 1.06126 0.0799(29) 121731. 0.07769 0.07901
51275.65 1.06137 0.0815(29) 117040. 0.07770 0.07903
51280.75 1.06148 0.0780(28) 123476. 0.07770 0.07906
51285.9 1.06158 0.0759(28) 130678. 0.07770 0.07909
51291.05 1.06169 0.0775(28) 124255. 0.07770 0.07912
51296.15 1.06180 0.0796(29) 117868. 0.07770 0.07916
51301.25 1.06190 0.0758(28) 127859. 0.07770 0.07920
51306.4 1.06201 0.0782(28) 123873. 0.07771 0.07924
51311.55 1.06211 0.0804(29) 116951. 0.07771 0.07929
51316.65 1.06222 0.0809(29) 116409. 0.07771 0.07935
51321.8 1.06233 0.0824(29) 116878. 0.07771 0.07941
51326.95 1.06243 0.0853(30) 109803. 0.07771 0.07948
51332.05 1.06254 0.0781(29) 122657. 0.07771 0.07956
51337.2 1.06265 0.0793(29) 121069. 0.07772 0.07966
51342.35 1.06275 0.0787(29) 121385. 0.07772 0.07977
51347.45 1.06286 0.0819(30) 114629. 0.07772 0.07989
51352.6 1.06296 0.0808(29) 118333. 0.07772 0.08004
51357.75 1.06307 0.0832(30) 112636. 0.07772 0.08021
51362.85 1.06318 0.0829(30) 114134. 0.07772 0.08042
51368.0 1.06328 0.0829(29) 116686. 0.07773 0.08067
51373.15 1.06339 0.0872(31) 106990. 0.07773 0.08098
51378.3 1.06350 0.0817(29) 118381. 0.07773 0.08134
51383.45 1.06360 0.0854(30) 110920. 0.07773 0.08177
51388.55 1.06371 0.0838(29) 115674. 0.07773 0.08228
51393.7 1.06382 0.0845(29) 115536. 0.07773 0.08288
51398.85 1.06392 0.0930(32) 99868. 0.07774 0.08357
51404.0 1.06403 0.0875(30) 111598. 0.07774 0.08436
51409.15 1.06414 0.0937(32) 99734. 0.07774 0.08523
51414.25 1.06424 0.0901(31) 106969. 0.07774 0.08618
51419.4 1.06435 0.0957(32) 100636. 0.07774 0.08723
51424.55 1.06445 0.0943(31) 101582. 0.07774 0.08837
51429.7 1.06456 0.0961(32) 99338. 0.07775 0.08961
51434.85 1.06467 0.0987(32) 95402. 0.07775 0.09094
51439.95 1.06477 0.0959(32) 98660. 0.07775 0.09235
51445.1 1.06488 0.0953(32) 100356. 0.07775 0.09382
51450.25 1.06499 0.0986(32) 96678. 0.07775 0.09529
51455.4 1.06509 0.1032(33) 92026. 0.07775 0.09673
51460.55 1.06520 0.1049(34) 88207. 0.07776 0.09813
51465.7 1.06531 0.0965(32) 99808. 0.07776 0.09952
51470.85 1.06541 0.1003(33) 92975. 0.07776 0.10092
51476.0 1.06552 0.1015(33) 93511. 0.07776 0.10242
51481.15 1.06563 0.1085(34) 85752. 0.07776 0.10402
51486.3 1.06573 0.1052(33) 90415. 0.07776 0.10574
51491.45 1.06584 0.1053(34) 88748. 0.07777 0.10758
51496.6 1.06595 0.1058(33) 90342. 0.07777 0.10953
51501.75 1.06605 0.1125(35) 81588. 0.07777 0.11153
51506.9 1.06616 0.1118(35) 83939. 0.07777 0.11341
51512.05 1.06627 0.1091(34) 86198. 0.07777 0.11503
51517.2 1.06637 0.1127(35) 83246. 0.07777 0.11613
51522.35 1.06648 0.1137(35) 81830. 0.07778 0.11654
51527.5 1.06659 0.115(4) 81122. 0.0778 0.1162
51532.65 1.06669 0.115(4) 79575. 0.0778 0.1151
51537.8 1.06680 0.1070(33) 89807. 0.07778 0.11347
51542.95 1.06691 0.1148(35) 81417. 0.07778 0.11139
51548.1 1.06701 0.1089(34) 87272. 0.07778 0.10905
51553.25 1.06712 0.1031(33) 90532. 0.07779 0.10657
51558.4 1.06723 0.1040(33) 90767. 0.07779 0.10406
51563.55 1.06733 0.0989(32) 96205. 0.07779 0.10160
51568.7 1.06744 0.0899(30) 108307. 0.07779 0.09925
51573.9 1.06755 0.0912(31) 104647. 0.07779 0.09704
51579.05 1.06765 0.0899(31) 104453. 0.07779 0.09502
51584.2 1.06776 0.0850(30) 114138. 0.07780 0.09320
51589.35 1.06787 0.0849(30) 113809. 0.07780 0.09155
51594.5 1.06797 0.0863(30) 112656. 0.07780 0.09009
51599.7 1.06808 0.0896(31) 106875. 0.07780 0.08877
51604.85 1.06819 0.0885(31) 105632. 0.07780 0.08762
51610.0 1.06829 0.0844(29) 114957. 0.07780 0.08659
51615.15 1.06840 0.0901(31) 103705. 0.07781 0.08569
51620.3 1.06851 0.0873(30) 110041. 0.07781 0.08489
51625.5 1.06861 0.0868(30) 112619. 0.07781 0.08418
51630.65 1.06872 0.0876(30) 108227. 0.07781 0.08356
51635.8 1.06883 0.0833(29) 116408. 0.07781 0.08300
51641.0 1.06894 0.0816(29) 120947. 0.07781 0.08251
51646.15 1.06904 0.0825(29) 115309. 0.07782 0.08208
51651.3 1.06915 0.0791(29) 121783. 0.07782 0.08169
51656.45 1.06925 0.0809(29) 116618. 0.07782 0.08135
51661.6 1.06936 0.0780(28) 125600. 0.07782 0.08105
51666.8 1.06947 0.0770(28) 127712. 0.07782 0.08078
51671.95 1.06958 0.0750(28) 129459. 0.07782 0.08054
51677.1 1.06968 0.0779(28) 126253. 0.07783 0.08032
51682.3 1.06979 0.0843(29) 115185. 0.07783 0.08013
51687.5 1.06990 0.0816(29) 120123. 0.07783 0.07996
51692.65 1.07000 0.0794(29) 121044. 0.07783 0.07981
51697.8 1.07011 0.0799(29) 121126. 0.07783 0.07967
51703.0 1.07022 0.0761(28) 129101. 0.07783 0.07955
51708.15 1.07033 0.0783(29) 122458. 0.07784 0.07944
51713.3 1.07043 0.0775(28) 125989. 0.07784 0.07934
51718.5 1.07054 0.0778(28) 126625. 0.07784 0.07924
51723.65 1.07065 0.0873(31) 107220. 0.07784 0.07916
51728.8 1.07075 0.0793(29) 122731. 0.07784 0.07909
51734.0 1.07086 0.0751(28) 129919. 0.07784 0.07898
51739.2 1.07097 0.0765(28) 127063. 0.07785 0.07892
51744.35 1.07107 0.0785(29) 121650. 0.07785 0.07879
51749.5 1.07118 0.0763(28) 128623. 0.07785 0.07874
51754.7 1.07129 0.0789(28) 124135. 0.07785 0.07869
51759.9 1.07140 0.0792(29) 122630. 0.07785 0.07865
51765.05 1.07150 0.0784(28) 124788. 0.07785 0.07861
51770.2 1.07161 0.0825(29) 118030. 0.07786 0.07858
51775.4 1.07172 0.0764(28) 131515. 0.07786 0.07854
51780.6 1.07183 0.0803(29) 120980. 0.07786 0.07851
51785.8 1.07193 0.0777(28) 123446. 0.07786 0.07849
51790.95 1.07204 0.0715(27) 135728. 0.07786 0.07846
51796.1 1.07215 0.0766(28) 126610. 0.07786 0.07844
51801.3 1.07225 0.0788(28) 123684. 0.07787 0.07841
51806.5 1.07236 0.0801(29) 121734. 0.07787 0.07841
51811.65 1.07247 0.0813(29) 116296. 0.07787 0.07840
51816.8 1.07257 0.0762(28) 128294. 0.07787 0.07838
51822.0 1.07268 0.0798(29) 121637. 0.07787 0.07836
51827.2 1.07279 0.0781(28) 124511. 0.07787 0.07835
51832.4 1.07290 0.0762(28) 128437. 0.07788 0.07835
51837.6 1.07301 0.0759(28) 130959. 0.07788 0.07833
51842.75 1.07311 0.0777(28) 124860. 0.07788 0.07832
51847.9 1.07322 0.0761(28) 130421. 0.07788 0.07831
51853.1 1.07333 0.0756(28) 131248. 0.07788 0.07830
51858.3 1.07343 0.0743(27) 134259. 0.07788 0.07829
51863.5 1.07354 0.0757(28) 130213. 0.07788 0.07828
51868.7 1.07365 0.0772(28) 127040. 0.07789 0.07828
51873.9 1.07376 0.0786(28) 124072. 0.07789 0.07827
51879.1 1.07386 0.0767(28) 127397. 0.07789 0.07826
51884.25 1.07397 0.0746(28) 129689. 0.07789 0.07825
51889.4 1.07408 0.0737(27) 133311. 0.07789 0.07825
51894.6 1.07419 0.0755(28) 131645. 0.07789 0.07824
51899.8 1.07429 0.0716(27) 138642. 0.07790 0.07823
51905.0 1.07440 0.0740(28) 129902. 0.07790 0.07823
51910.2 1.07451 0.0733(27) 135089. 0.07790 0.07822
51915.4 1.07462 0.0754(28) 130541. 0.07790 0.07822
51920.6 1.07472 0.0782(28) 124034. 0.07790 0.07821
51925.8 1.07483 0.0790(28) 123517. 0.07790 0.07821
51931.0 1.07494 0.0767(28) 130134. 0.07791 0.07820
51936.15 1.07505 0.0825(29) 115180. 0.07791 0.07820
51941.3 1.07515 0.0739(27) 134272. 0.07791 0.07820
51946.5 1.07526 0.0770(28) 126521. 0.07791 0.07819
51951.7 1.07537 0.0815(29) 119951. 0.07791 0.07819
51956.9 1.07547 0.0816(29) 121856. 0.07791 0.07819
51962.1 1.07558 0.0752(28) 131429. 0.07792 0.07819
51967.3 1.07569 0.0722(27) 135584. 0.07792 0.07818
51972.5 1.07580 0.0739(27) 135387. 0.07792 0.07818
51977.7 1.07591 0.0781(28) 126250. 0.07792 0.07818
51982.9 1.07601 0.0781(28) 126305. 0.07792 0.07818
51988.1 1.07612 0.0806(29) 120694. 0.07792 0.07818
51993.3 1.07623 0.0771(28) 129814. 0.07793 0.07817
51998.5 1.07634 0.0776(28) 126970. 0.07793 0.07817
52003.7 1.07644 0.0760(28) 128510. 0.07793 0.07817
52008.9 1.07655 0.0752(28) 130127. 0.07793 0.07817
52014.1 1.07666 0.0753(28) 127720. 0.07793 0.07817
52019.3 1.07677 0.0764(28) 124187. 0.07793 0.07817
52024.5 1.07687 0.0764(28) 125560. 0.07793 0.07817
52029.7 1.07698 0.0758(28) 128389. 0.07794 0.07817
52034.9 1.07709 0.0766(28) 125596. 0.07794 0.07817
52040.1 1.07720 0.0780(29) 122262. 0.07794 0.07817
52045.3 1.07731 0.0819(29) 115104. 0.07794 0.07817
52050.5 1.07741 0.0832(30) 112731. 0.07794 0.07817
52055.7 1.07752 0.0788(29) 122176. 0.07794 0.07817
52060.95 1.07763 0.0813(29) 118182. 0.07795 0.07817
52066.2 1.07774 0.0825(30) 114035. 0.07795 0.07817
52071.4 1.07785 0.0770(28) 124687. 0.07795 0.07817
52076.6 1.07795 0.0774(28) 123822. 0.07795 0.07817
52081.8 1.07806 0.0779(28) 123123. 0.07795 0.07817
52087.0 1.07817 0.0778(28) 123782. 0.07795 0.07817
52092.2 1.07828 0.0806(29) 118465. 0.07796 0.07817
52097.4 1.07838 0.0826(30) 114155. 0.07796 0.07817
52102.6 1.07849 0.0821(29) 116867. 0.07796 0.07817
52107.8 1.07860 0.0800(29) 121532. 0.07796 0.07817
52113.0 1.07871 0.0807(29) 120594. 0.07796 0.07818
52118.2 1.07881 0.0832(29) 115706. 0.07796 0.07818
52123.45 1.07892 0.0767(28) 130289. 0.07796 0.07818
52128.7 1.07903 0.0793(29) 120992. 0.07797 0.07818
52133.9 1.07914 0.0751(28) 131897. 0.07797 0.07818
52139.1 1.07925 0.0791(29) 122315. 0.07797 0.07818
52144.3 1.07935 0.0770(28) 126637. 0.07797 0.07819
52149.5 1.07946 0.0800(29) 121250. 0.07797 0.07819
52154.7 1.07957 0.0782(28) 125909. 0.07797 0.07819
52159.95 1.07968 0.0768(28) 129872. 0.07798 0.07819
52165.2 1.07979 0.0768(28) 128511. 0.07798 0.07820
52170.4 1.07989 0.0791(29) 122319. 0.07798 0.07820
52175.6 1.08000 0.0758(28) 128401. 0.07798 0.07820
52180.8 1.08011 0.0806(29) 118994. 0.07798 0.07820
52186.0 1.08022 0.0822(29) 116582. 0.07798 0.07821
52191.25 1.08033 0.0757(28) 131030. 0.07799 0.07821
52196.5 1.08044 0.0810(29) 118006. 0.07799 0.07821
52201.7 1.08054 0.0783(28) 124458. 0.07799 0.07822
52206.9 1.08065 0.0825(29) 116102. 0.07799 0.07822
52212.1 1.08076 0.0826(29) 116829. 0.07799 0.07822
52217.35 1.08087 0.0746(27) 133402. 0.07799 0.07823
52222.6 1.08098 0.0763(28) 125720. 0.07799 0.07823
52227.8 1.08108 0.0816(29) 116035. 0.07800 0.07823
52233.0 1.08119 0.0796(29) 119846. 0.07800 0.07824
52238.25 1.08130 0.0766(28) 129103. 0.07800 0.07824
52243.5 1.08141 0.0815(29) 115789. 0.07800 0.07825
52248.7 1.08152 0.0790(29) 120152. 0.07800 0.07825
52253.9 1.08162 0.0795(29) 120061. 0.07800 0.07826
52259.15 1.08173 0.0800(29) 122690. 0.07801 0.07826
52264.4 1.08184 0.0814(29) 117673. 0.07801 0.07827
52269.6 1.08195 0.0802(29) 118714. 0.07801 0.07827
52274.8 1.08206 0.0795(29) 120511. 0.07801 0.07828
52280.05 1.08217 0.0761(28) 129424. 0.07801 0.07828
52285.3 1.08227 0.0774(28) 126256. 0.07801 0.07829
52290.5 1.08238 0.0801(29) 119757. 0.07801 0.07830
52295.7 1.08249 0.0786(29) 122251. 0.07802 0.07830
52300.95 1.08260 0.0779(28) 126939. 0.07802 0.07831
52306.2 1.08271 0.0852(30) 111157. 0.07802 0.07832
52311.4 1.08281 0.0786(29) 122189. 0.07802 0.07833
52316.65 1.08292 0.0767(28) 127896. 0.07802 0.07834
52321.9 1.08303 0.0804(29) 121161. 0.07802 0.07834
52327.1 1.08314 0.0809(29) 119173. 0.07803 0.07835
52332.35 1.08325 0.0753(28) 131458. 0.07803 0.07836
52337.6 1.08336 0.0796(29) 119425. 0.07803 0.07837
52342.8 1.08346 0.0787(28) 123739. 0.07803 0.07839
52348.05 1.08357 0.0749(27) 135237. 0.07803 0.07840
52353.3 1.08368 0.0795(29) 122021. 0.07803 0.07841
52358.5 1.08379 0.0797(29) 120992. 0.07803 0.07842
52363.75 1.08390 0.0747(28) 132042. 0.07804 0.07844
52369.0 1.08401 0.0790(29) 120764. 0.07804 0.07845
52374.2 1.08411 0.0759(28) 127987. 0.07804 0.07847
52379.45 1.08422 0.0777(28) 124820. 0.07804 0.07849
52384.7 1.08433 0.0800(29) 119979. 0.07804 0.07851
52389.95 1.08444 0.0776(28) 126088. 0.07804 0.07853
52395.2 1.08455 0.0807(29) 119010. 0.07804 0.07856
52400.4 1.08466 0.0835(29) 115334. 0.07805 0.07858
52405.65 1.08477 0.0805(29) 122079. 0.07805 0.07861
52410.9 1.08487 0.0801(29) 119399. 0.07805 0.07864
52416.15 1.08498 0.0813(29) 119240. 0.07805 0.07868
52421.4 1.08509 0.0809(29) 120362. 0.07805 0.07873
52426.65 1.08520 0.0801(29) 121852. 0.07805 0.07879
52431.9 1.08531 0.0804(29) 118598. 0.07806 0.07886
52437.1 1.08542 0.0740(27) 134461. 0.07806 0.07895
52442.35 1.08552 0.0796(28) 123655. 0.07806 0.07906
52447.6 1.08563 0.0779(28) 128751. 0.07806 0.07920
52452.85 1.08574 0.0809(29) 121941. 0.07806 0.07936
52458.1 1.08585 0.0779(28) 125845. 0.07806 0.07956
52463.35 1.08596 0.0748(27) 135755. 0.07806 0.07980
52468.6 1.08607 0.0749(27) 133199. 0.07807 0.08007
52473.8 1.08618 0.0810(29) 120451. 0.07807 0.08037
52479.05 1.08628 0.0832(29) 119158. 0.07807 0.08072
52484.3 1.08639 0.0807(29) 122487. 0.07807 0.08109
52489.55 1.08650 0.0791(28) 127370. 0.07807 0.08147
52494.8 1.08661 0.0810(29) 120859. 0.07807 0.08182
52500.05 1.08672 0.0753(27) 135965. 0.07807 0.08212
52505.3 1.08683 0.0763(28) 131392. 0.07808 0.08236
52510.55 1.08694 0.0761(28) 131827. 0.07808 0.08251
52515.8 1.08705 0.0744(27) 134868. 0.07808 0.08260
52521.05 1.08715 0.0756(27) 133739. 0.07808 0.08263
52526.35 1.08726 0.0765(28) 131409. 0.07808 0.08261
52531.6 1.08737 0.0752(28) 131223. 0.07808 0.08255
52536.85 1.08748 0.0753(27) 132986. 0.07808 0.08246
52542.1 1.08759 0.0768(28) 128065. 0.07809 0.08233
52547.35 1.08770 0.0765(28) 130613. 0.07809 0.08218
52552.6 1.08781 0.0798(29) 121537. 0.07809 0.08200
52557.85 1.08792 0.0710(27) 141999. 0.07809 0.08180
52563.1 1.08802 0.0734(27) 135077. 0.07809 0.08160
52568.35 1.08813 0.0791(28) 126422. 0.07809 0.08140
52573.6 1.08824 0.0797(28) 125511. 0.07810 0.08121
52578.85 1.08835 0.0829(29) 118161. 0.07810 0.08104
52584.15 1.08846 0.0800(28) 123452. 0.07810 0.08087
52589.4 1.08857 0.0826(29) 117247. 0.07810 0.08074
52594.65 1.08868 0.0793(28) 124452. 0.07810 0.08062
52599.9 1.08879 0.0813(29) 117483. 0.07810 0.08052
52605.15 1.08890 0.0792(28) 123973. 0.07810 0.08048
52610.45 1.08900 0.0786(28) 124932. 0.07811 0.08042
52615.7 1.08911 0.0796(29) 122368. 0.07811 0.08039
52620.95 1.08922 0.0815(29) 121355. 0.07811 0.08038
52626.2 1.08933 0.0767(28) 129865. 0.07811 0.08039
52631.45 1.08944 0.0786(28) 124430. 0.07811 0.08043
52636.75 1.08955 0.0758(27) 133072. 0.07811 0.08048
52642.0 1.08966 0.0815(29) 120145. 0.07811 0.08056
52647.25 1.08977 0.0811(28) 123281. 0.07812 0.08067
52652.55 1.08988 0.0797(28) 125233. 0.07812 0.08081
52657.8 1.08999 0.0825(29) 119823. 0.07812 0.08098
52663.05 1.09009 0.0794(28) 127484. 0.07812 0.08126
52668.35 1.09020 0.0739(27) 138066. 0.07812 0.08153
52673.6 1.09031 0.0798(29) 122072. 0.07812 0.08187
52678.85 1.09042 0.0827(29) 119024. 0.07812 0.08230
52684.15 1.09053 0.0829(29) 119709. 0.07813 0.08285
52689.4 1.09064 0.0827(29) 117707. 0.07813 0.08354
52694.65 1.09075 0.0857(30) 114086. 0.07813 0.08441
52699.95 1.09086 0.0840(29) 118252. 0.07813 0.08551
52705.2 1.09097 0.0856(30) 114473. 0.07813 0.08685
52710.45 1.09108 0.0848(29) 116827. 0.07813 0.08848
52715.75 1.09118 0.0848(29) 116009. 0.07813 0.09046
52721.05 1.09129 0.0872(30) 112752. 0.07814 0.09278
52726.3 1.09140 0.0913(31) 106699. 0.07814 0.09541
52731.55 1.09151 0.0906(30) 108810. 0.07814 0.09833
52736.85 1.09162 0.0907(30) 109242. 0.07814 0.10148
52742.15 1.09173 0.0975(32) 99810. 0.07814 0.10466
52747.4 1.09184 0.0965(32) 99788. 0.07814 0.10766
52752.65 1.09195 0.0991(32) 98223. 0.07814 0.11033
52757.95 1.09206 0.1078(34) 89075. 0.07814 0.11258
52763.25 1.09217 0.1085(34) 88158. 0.07815 0.11430
52768.5 1.09228 0.1103(34) 84979. 0.07815 0.11546
52773.75 1.09239 0.1108(34) 86295. 0.07815 0.11605
52779.05 1.09250 0.1155(35) 82543. 0.07815 0.11604
52784.35 1.09261 0.117(4) 80624. 0.0782 0.1154
52789.6 1.09271 0.117(4) 79813. 0.0782 0.1143
52794.85 1.09282 0.119(4) 79753. 0.0782 0.1127
52800.15 1.09293 0.1107(34) 87908. 0.07816 0.11076
52805.45 1.09304 0.1114(34) 86728. 0.07816 0.10856
52810.75 1.09315 0.1081(33) 89169. 0.07816 0.10622
52816.0 1.09326 0.1060(33) 89624. 0.07816 0.10386
52821.25 1.09337 0.1039(33) 93593. 0.07816 0.10153
52826.55 1.09348 0.0994(32) 98134. 0.07816 0.09927
52831.85 1.09359 0.0973(32) 99768. 0.07816 0.09715
52837.15 1.09370 0.0967(32) 99979. 0.07817 0.09518
52842.45 1.09381 0.0950(31) 100837. 0.07817 0.09337
52847.7 1.09392 0.0978(32) 95762. 0.07817 0.09176
52852.95 1.09403 0.0909(30) 107865. 0.07817 0.09031
52858.25 1.09414 0.0882(30) 110385. 0.07817 0.08900
52863.55 1.09424 0.0872(30) 113463. 0.07817 0.08785
52868.85 1.09435 0.0878(30) 111011. 0.07817 0.08682
52874.15 1.09446 0.0816(29) 122467. 0.07818 0.08591
52879.45 1.09457 0.0861(29) 115922. 0.07818 0.08511
52884.75 1.09468 0.0841(29) 119209. 0.07818 0.08441
52890.0 1.09479 0.0856(30) 113155. 0.07818 0.08380
52895.25 1.09490 0.0814(29) 122001. 0.07818 0.08325
52900.55 1.09501 0.0816(29) 121065. 0.07818 0.08277
52905.85 1.09512 0.0887(30) 109954. 0.07818 0.08234
52911.15 1.09523 0.0849(29) 115021. 0.07818 0.08197
52916.45 1.09534 0.0841(29) 115001. 0.07819 0.08163
52921.75 1.09545 0.0840(29) 117126. 0.07819 0.08134
52927.05 1.09556 0.0797(28) 124642. 0.07819 0.08108
52932.35 1.09567 0.0811(29) 121817. 0.07819 0.08085
52937.65 1.09578 0.0838(29) 117266. 0.07819 0.08064
52942.95 1.09589 0.0813(29) 122602. 0.07819 0.08046
52948.25 1.09600 0.0835(29) 117069. 0.07819 0.08030
52953.5 1.09611 0.0837(29) 117343. 0.07820 0.08016
52958.75 1.09622 0.0850(29) 116154. 0.07820 0.08003
52964.05 1.09633 0.0798(28) 124438. 0.07820 0.07991
52969.35 1.09644 0.0740(27) 135517. 0.07820 0.07981
52974.65 1.09654 0.0781(28) 125078. 0.07820 0.07972
52979.95 1.09665 0.0818(29) 119115. 0.07820 0.07964
52985.25 1.09676 0.0791(28) 124440. 0.07820 0.07956
52990.55 1.09687 0.0768(28) 125789. 0.07820 0.07950
52995.85 1.09698 0.0750(28) 130649. 0.07821 0.07944
53001.15 1.09709 0.0785(28) 125936. 0.07821 0.07938
53006.45 1.09720 0.0796(28) 123467. 0.07821 0.07933
53011.75 1.09731 0.0778(28) 126402. 0.07821 0.07929
53017.05 1.09742 0.0706(26) 145651. 0.07821 0.07925
53022.35 1.09753 0.0805(29) 122826. 0.07821 0.07921
53027.65 1.09764 0.0826(29) 118887. 0.07821 0.07918
53032.95 1.09775 0.0791(28) 125258. 0.07822 0.07915
53038.25 1.09786 0.0796(28) 123591. 0.07822 0.07913
53043.55 1.09797 0.0837(29) 115939. 0.07822 0.07910
53048.85 1.09808 0.0842(29) 115615. 0.07822 0.07908
53054.2 1.09819 0.0822(29) 121536. 0.07822 0.07906
53059.55 1.09830 0.0845(30) 114578. 0.07822 0.07904
53064.85 1.09841 0.0809(29) 118903. 0.07822 0.07903
53070.15 1.09852 0.0804(29) 119189. 0.07822 0.07902
53075.45 1.09863 0.0805(29) 119141. 0.07823 0.07900
53080.75 1.09874 0.0856(30) 109671. 0.07823 0.07899
53086.05 1.09885 0.0766(28) 128227. 0.07823 0.07898
53091.35 1.09896 0.0822(30) 114546. 0.07823 0.07897
53096.65 1.09907 0.0793(28) 123297. 0.07823 0.07897
53101.95 1.09918 0.0840(30) 113078. 0.07823 0.07896
53107.25 1.09929 0.0861(30) 108794. 0.07823 0.07896
53112.55 1.09940 0.0835(29) 115625. 0.07823 0.07895
53117.9 1.09951 0.0840(30) 114799. 0.07824 0.07895
53123.25 1.09962 0.0808(29) 116816. 0.07824 0.07895
53128.55 1.09973 0.0836(30) 111246. 0.07824 0.07895
53133.85 1.09984 0.0795(29) 121456. 0.07824 0.07895
53139.15 1.09995 0.0811(29) 117174. 0.07824 0.07895
53144.45 1.10006 0.0812(29) 118975. 0.07824 0.07895
53149.75 1.10017 0.0806(29) 121142. 0.07824 0.07895
53155.1 1.10028 0.0799(29) 123078. 0.07824 0.07895
53160.45 1.10039 0.0798(29) 121071. 0.07825 0.07895
53165.75 1.10050 0.0832(30) 114858. 0.07825 0.07896
53171.05 1.10061 0.0808(29) 119976. 0.07825 0.07896
53176.35 1.10072 0.0807(29) 119663. 0.07825 0.07897
53181.65 1.10083 0.0826(29) 117794. 0.07825 0.07898
53186.95 1.10094 0.0820(29) 118534. 0.07825 0.07898
53192.3 1.10105 0.0782(28) 126776. 0.07825 0.07899
53197.65 1.10116 0.0810(29) 118653. 0.07825 0.07900
53202.95 1.10127 0.0808(29) 117412. 0.07826 0.07901
53208.25 1.10138 0.0765(28) 127547. 0.07826 0.07902
53213.6 1.10149 0.0806(29) 122516. 0.07826 0.07903
53218.95 1.10160 0.0797(28) 123354. 0.07826 0.07904
53224.25 1.10171 0.0759(27) 132515. 0.07826 0.07906
53229.55 1.10182 0.0802(29) 121469. 0.07826 0.07907
53234.85 1.10193 0.0808(29) 120597. 0.07826 0.07908
53240.2 1.10204 0.0826(29) 118217. 0.07826 0.07910
53245.55 1.10215 0.0799(29) 122275. 0.07827 0.07912
53250.85 1.10226 0.0814(29) 119407. 0.07827 0.07913
53256.15 1.10237 0.0825(29) 115582. 0.07827 0.07915
53261.5 1.10248 0.0806(29) 120540. 0.07827 0.07917
53266.85 1.10259 0.0763(28) 129853. 0.07827 0.07919
53272.15 1.10270 0.0792(29) 122039. 0.07827 0.07922
53277.45 1.10281 0.0785(28) 124953. 0.07827 0.07924
53282.8 1.10292 0.0817(29) 120458. 0.07827 0.07927
53288.15 1.10303 0.0840(29) 114917. 0.07828 0.07929
53293.45 1.10314 0.0829(29) 117159. 0.07828 0.07932
53298.8 1.10326 0.0806(28) 123470. 0.07828 0.07935
53304.15 1.10337 0.0799(29) 122559. 0.07828 0.07938
53309.45 1.10348 0.0803(29) 122887. 0.07828 0.07942
53314.75 1.10359 0.0791(28) 125063. 0.07828 0.07945
53320.1 1.10370 0.0753(28) 131897. 0.07828 0.07949
53325.45 1.10381 0.0759(28) 129620. 0.07828 0.07954
53330.8 1.10392 0.0770(28) 129119. 0.07828 0.07958
53336.15 1.10403 0.0770(28) 127179. 0.07829 0.07963
53341.45 1.10414 0.0790(29) 121544. 0.07829 0.07968
53346.8 1.10425 0.0761(28) 131163. 0.07829 0.07973
53352.15 1.10436 0.0807(29) 120183. 0.07829 0.07979
53357.45 1.10447 0.0799(29) 122782. 0.07829 0.07985
53362.8 1.10458 0.0806(28) 123888. 0.07829 0.07992
53368.15 1.10469 0.0819(29) 120215. 0.07829 0.07999
53373.45 1.10480 0.0832(29) 118231. 0.07829 0.08006
53378.8 1.10491 0.0795(28) 126084. 0.07830 0.08014
53384.15 1.10502 0.0799(29) 122377. 0.07830 0.08023
53389.45 1.10513 0.0848(30) 114503. 0.07830 0.08033
53394.8 1.10524 0.0778(28) 130616. 0.07830 0.08043
53400.15 1.10535 0.0793(28) 124958. 0.07830 0.08055
53405.5 1.10546 0.0822(29) 121218. 0.07830 0.08067
53410.85 1.10558 0.0826(29) 120176. 0.07830 0.08081
53416.15 1.10568 0.0800(28) 124210. 0.07830 0.08095
53421.5 1.10580 0.0787(28) 128382. 0.07830 0.08111
53426.85 1.10591 0.0842(29) 116633. 0.07831 0.08129
53432.2 1.10602 0.0834(29) 120142. 0.07831 0.08149
53437.55 1.10613 0.0892(30) 108414. 0.07831 0.08171
53442.9 1.10624 0.0819(28) 123247. 0.07831 0.08196
53448.25 1.10635 0.0804(29) 122845. 0.07831 0.08224
53453.6 1.10646 0.0811(28) 123388. 0.07831 0.08256
53458.95 1.10657 0.0858(30) 113256. 0.07831 0.08294
53464.25 1.10668 0.0797(28) 124595. 0.07831 0.08338
53469.6 1.10679 0.0823(29) 119928. 0.07831 0.08391
53474.95 1.10690 0.0846(29) 116416. 0.07832 0.08455
53480.3 1.10701 0.0831(29) 120619. 0.07832 0.08534
53485.65 1.10712 0.0866(30) 113463. 0.07832 0.08632
53491.0 1.10723 0.0879(30) 113424. 0.07832 0.08754
53496.35 1.10735 0.0855(30) 114767. 0.07832 0.08904
53501.7 1.10746 0.0865(30) 114551. 0.07832 0.09087
53507.05 1.10757 0.0914(31) 106820. 0.07832 0.09310
53512.4 1.10768 0.0943(31) 105199. 0.07832 0.09575
53517.75 1.10779 0.1009(33) 94527. 0.07832 0.09886
53523.1 1.10790 0.1003(32) 98269. 0.07833 0.10240
53528.45 1.10801 0.1069(33) 91109. 0.07833 0.10634
53533.8 1.10812 0.1118(34) 86436. 0.07833 0.11056
53539.15 1.10823 0.1140(34) 84281. 0.07833 0.11489
53544.5 1.10834 0.120(4) 80803. 0.0783 0.1191
53549.9 1.10845 0.122(4) 79805. 0.0783 0.1231
53555.25 1.10856 0.130(4) 72901. 0.0783 0.1267
53560.6 1.10868 0.134(4) 72082. 0.0783 0.1300
53565.95 1.10879 0.144(4) 64837. 0.0783 0.1332
53571.3 1.10890 0.142(4) 67215. 0.0783 0.1365
53576.65 1.10901 0.152(4) 60845. 0.0783 0.1401
53582.0 1.10912 0.149(4) 63005. 0.0783 0.1440
53587.4 1.10923 0.151(4) 62640. 0.0783 0.1481
53592.75 1.10934 0.166(4) 54952. 0.0783 0.1521
53598.1 1.10945 0.166(4) 56252. 0.0783 0.1557
53603.45 1.10956 0.169(4) 54371. 0.0783 0.1582
53608.8 1.10967 0.163(4) 57892. 0.0783 0.1593
53614.2 1.10978 0.164(4) 57343. 0.0783 0.1588
53619.55 1.10990 0.163(4) 57735. 0.0783 0.1568
53624.9 1.11001 0.166(4) 56887. 0.0783 0.1534
53630.25 1.11012 0.160(4) 58205. 0.0783 0.1492
53635.6 1.11023 0.151(4) 63432. 0.0783 0.1443
53641.0 1.11034 0.141(4) 68149. 0.0783 0.1390
53646.35 1.11045 0.134(4) 70479. 0.0784 0.1336
53651.7 1.11056 0.127(4) 76637. 0.0784 0.1284
53657.1 1.11067 0.121(4) 81276. 0.0784 0.1233
53662.45 1.11078 0.1171(35) 83678. 0.07835 0.11861
53667.8 1.11089 0.1132(34) 87273. 0.07835 0.11429
53673.2 1.11101 0.1069(33) 94615. 0.07836 0.11033
53678.55 1.11112 0.1087(33) 89679. 0.07836 0.10681
53683.9 1.11123 0.1015(32) 98001. 0.07836 0.10367
53689.3 1.11134 0.1020(32) 97949. 0.07836 0.10086
53694.65 1.11145 0.1030(32) 95624. 0.07836 0.09840
53700.0 1.11156 0.1000(31) 101386. 0.07836 0.09621
53705.4 1.11167 0.0960(31) 106504. 0.07836 0.09428
53710.8 1.11178 0.0915(30) 109639. 0.07836 0.09259
53716.15 1.11190 0.0877(30) 112922. 0.07836 0.09111
53721.5 1.11201 0.0828(29) 122529. 0.07836 0.08981
53726.9 1.11212 0.0822(29) 122730. 0.07837 0.08863
53732.25 1.11223 0.0874(30) 111341. 0.07837 0.08762
53737.6 1.11234 0.0824(28) 123209. 0.07837 0.08673
53743.0 1.11245 0.0884(30) 110839. 0.07837 0.08593
53748.4 1.11256 0.0784(28) 129175. 0.07837 0.08522
53753.75 1.11267 0.0793(28) 124864. 0.07837 0.08460
53759.1 1.11278 0.0834(29) 118465. 0.07837 0.08406
53764.5 1.11290 0.0794(28) 126853. 0.07837 0.08356
53769.9 1.11301 0.0867(30) 111762. 0.07837 0.08313
53775.25 1.11312 0.0805(29) 120012. 0.07837 0.08274
53780.6 1.11323 0.0737(27) 135949. 0.07838 0.08240
53786.0 1.11334 0.0809(29) 122860. 0.07838 0.08209
53791.4 1.11345 0.0819(29) 122826. 0.07838 0.08181
53796.8 1.11357 0.0822(29) 120559. 0.07838 0.08156
53802.15 1.11368 0.0835(29) 115796. 0.07838 0.08134
53807.5 1.11379 0.0788(28) 127142. 0.07838 0.08114
53812.9 1.11390 0.0792(28) 123734. 0.07838 0.08096
53818.3 1.11401 0.0798(28) 123670. 0.07838 0.08079
53823.7 1.11412 0.0811(28) 123565. 0.07838 0.08064
53829.05 1.11423 0.0784(28) 125965. 0.07838 0.08051
53834.4 1.11434 0.0805(28) 123455. 0.07839 0.08039
53839.8 1.11446 0.0844(29) 117281. 0.07839 0.08027
53845.2 1.11457 0.0826(29) 120196. 0.07839 0.08017
53850.6 1.11468 0.0815(29) 121919. 0.07839 0.08008
53856.0 1.11479 0.0811(28) 123660. 0.07839 0.07999
53861.4 1.11490 0.0771(28) 129182. 0.07839 0.07991
53866.75 1.11501 0.0734(27) 133485. 0.07839 0.07984
53872.1 1.11512 0.0793(28) 124684. 0.07839 0.07977
53877.5 1.11524 0.0827(29) 121153. 0.07839 0.07971
53882.9 1.11535 0.0783(28) 129716. 0.07839 0.07965
53888.3 1.11546 0.0786(28) 126682. 0.07839 0.07959
53893.7 1.11557 0.0830(29) 119080. 0.07840 0.07954
53899.1 1.11568 0.0810(28) 125157. 0.07840 0.07950
53904.5 1.11579 0.0844(29) 117308. 0.07840 0.07945
53909.85 1.11591 0.0806(29) 122355. 0.07840 0.07941
53915.2 1.11602 0.0771(28) 128624. 0.07840 0.07938
53920.6 1.11613 0.0761(28) 130332. 0.07840 0.07934
53926.0 1.11624 0.0800(28) 124497. 0.07840 0.07931
53931.4 1.11635 0.0860(30) 114576. 0.07840 0.07927
53936.8 1.11646 0.0871(30) 112744. 0.07840 0.07924
53942.2 1.11658 0.0803(28) 125652. 0.07840 0.07922
53947.6 1.11669 0.0801(28) 124031. 0.07840 0.07919
53953.0 1.11680 0.0786(28) 126276. 0.07841 0.07916
53958.4 1.11691 0.0766(28) 130309. 0.07841 0.07914
53963.8 1.11702 0.0813(29) 120947. 0.07841 0.07912
53969.2 1.11713 0.0814(29) 122082. 0.07841 0.07910
53974.6 1.11725 0.0770(28) 130815. 0.07841 0.07907
53980.0 1.11736 0.0781(28) 127186. 0.07841 0.07906
53985.4 1.11747 0.0794(28) 125067. 0.07841 0.07904
53990.8 1.11758 0.0804(28) 124286. 0.07841 0.07902
53996.2 1.11769 0.0811(29) 123109. 0.07841 0.07900
54001.6 1.11781 0.0830(29) 117742. 0.07841 0.07899
54007.0 1.11792 0.0769(27) 132383. 0.07841 0.07897
54012.4 1.11803 0.0796(28) 124995. 0.07842 0.07896
54017.8 1.11814 0.0827(29) 118217. 0.07842 0.07894
54023.2 1.11825 0.0792(28) 125829. 0.07842 0.07893
54028.6 1.11836 0.0776(28) 128791. 0.07842 0.07892
54034.0 1.11848 0.0784(28) 125351. 0.07842 0.07891
54039.4 1.11859 0.0765(28) 129559. 0.07842 0.07890
54044.8 1.11870 0.0742(27) 135429. 0.07842 0.07889
54050.2 1.11881 0.0772(28) 128862. 0.07842 0.07889
54055.6 1.11892 0.0788(28) 125750. 0.07842 0.07888
54061.0 1.11903 0.0785(28) 128377. 0.07842 0.07889
54066.4 1.11915 0.0820(29) 122741. 0.07842 0.07888
54071.8 1.11926 0.0772(28) 130080. 0.07842 0.07888
54077.2 1.11937 0.0740(27) 136403. 0.07843 0.07887
54082.6 1.11948 0.0771(28) 130201. 0.07843 0.07886
54088.0 1.11959 0.0776(28) 129665. 0.07843 0.07885
54093.4 1.11971 0.0780(28) 129695. 0.07843 0.07884
54098.85 1.11982 0.0763(27) 135485. 0.07843 0.07884
54104.3 1.11993 0.0800(28) 124951. 0.07843 0.07883
54109.7 1.12004 0.0765(28) 131002. 0.07843 0.07882
54115.1 1.12015 0.0754(27) 133098. 0.07843 0.07882
54120.5 1.12027 0.0786(28) 124837. 0.07843 0.07881
54125.9 1.12038 0.0756(28) 131549. 0.07843 0.07881
54131.3 1.12049 0.0748(27) 134123. 0.07843 0.07880
54136.7 1.12060 0.0810(29) 120229. 0.07843 0.07880
54142.15 1.12071 0.0736(27) 138704. 0.07844 0.07879
54147.6 1.12083 0.0769(28) 129043. 0.07844 0.07879
54153.0 1.12094 0.0770(28) 129601. 0.07844 0.07878
54158.4 1.12105 0.0763(28) 129784. 0.07844 0.07878
54163.8 1.12116 0.0786(28) 127648. 0.07844 0.07877
54169.2 1.12127 0.0825(29) 119237. 0.07844 0.07877
54174.65 1.12139 0.0741(27) 138539. 0.07844 0.07876
54180.1 1.12150 0.0819(29) 119272. 0.07844 0.07876
54185.5 1.12161 0.0812(29) 120679. 0.07844 0.07876
54190.9 1.12172 0.0810(29) 121597. 0.07844 0.07875
54196.3 1.12184 0.0773(28) 127876. 0.07844 0.07875
54201.7 1.12195 0.0741(28) 131770. 0.07844 0.07875
54207.15 1.12206 0.0729(27) 138011. 0.07844 0.07874
54212.6 1.12217 0.0731(27) 136431. 0.07845 0.07874
54218.0 1.12229 0.0793(28) 124748. 0.07845 0.07874
54223.4 1.12240 0.0809(29) 122004. 0.07845 0.07874
54228.8 1.12251 0.0814(29) 121036. 0.07845 0.07873
54234.25 1.12262 0.0812(28) 123544. 0.07845 0.07873
54239.7 1.12273 0.0797(28) 123816. 0.07845 0.07873
54245.1 1.12285 0.0795(28) 125097. 0.07845 0.07873
54250.5 1.12296 0.0813(29) 120328. 0.07845 0.07872
54255.95 1.12307 0.0760(27) 133499. 0.07845 0.07872
54261.4 1.12318 0.0783(28) 127520. 0.07845 0.07872
54266.8 1.12330 0.0797(28) 123875. 0.07845 0.07872
54272.25 1.12341 0.0779(28) 127944. 0.07845 0.07872
54277.7 1.12352 0.0736(27) 138502. 0.07845 0.07872
54283.1 1.12363 0.0784(28) 126529. 0.07845 0.07871
54288.5 1.12374 0.0821(29) 120063. 0.07846 0.07871
54293.95 1.12386 0.0837(29) 118569. 0.07846 0.07871
54299.4 1.12397 0.0785(28) 125674. 0.07846 0.07871
54304.8 1.12408 0.0774(28) 128580. 0.07846 0.07871
54310.25 1.12419 0.0799(28) 125498. 0.07846 0.07871
54315.7 1.12431 0.0822(29) 119492. 0.07846 0.07871
54321.1 1.12442 0.0781(28) 127626. 0.07846 0.07871
54326.55 1.12453 0.0797(28) 126632. 0.07846 0.07871
54332.0 1.12465 0.0837(29) 117078. 0.07846 0.07871
54337.4 1.12476 0.0813(29) 121668. 0.07846 0.07870
54342.85 1.12487 0.0815(29) 122264. 0.07846 0.07870
54348.3 1.12498 0.0795(28) 124014. 0.07846 0.07870
54353.7 1.12509 0.0774(28) 130752. 0.07846 0.07870
54359.15 1.12521 0.0796(28) 127123. 0.07846 0.07870
54364.6 1.12532 0.0841(29) 115949. 0.07847 0.07870
54370.0 1.12543 0.0805(28) 124319. 0.07847 0.07870
54375.45 1.12554 0.0824(29) 121005. 0.07847 0.07870
54380.9 1.12566 0.0826(29) 120390. 0.07847 0.07870
54386.3 1.12577 0.0853(29) 115189. 0.07847 0.07870
54391.75 1.12588 0.0788(28) 128250. 0.07847 0.07870
54397.2 1.12599 0.0783(28) 127289. 0.07847 0.07870
54402.65 1.12611 0.0823(29) 120950. 0.07847 0.07870
54408.1 1.12622 0.0804(28) 125489. 0.07847 0.07870
54413.5 1.12633 0.0849(29) 116398. 0.07847 0.07870
54418.95 1.12645 0.0764(27) 135316. 0.07847 0.07870
54424.4 1.12656 0.0794(28) 124375. 0.07847 0.07871
54429.85 1.12667 0.0762(27) 134184. 0.07847 0.07871
54435.3 1.12678 0.0755(27) 133762. 0.07847 0.07871
54440.75 1.12690 0.0782(28) 130645. 0.07847 0.07871
54446.2 1.12701 0.0815(28) 123120. 0.07848 0.07871
54451.6 1.12712 0.0769(28) 129377. 0.07848 0.07871
54457.05 1.12723 0.0727(27) 139129. 0.07848 0.07871
54462.5 1.12735 0.0738(27) 137653. 0.07848 0.07871
54467.95 1.12746 0.0758(27) 135352. 0.07848 0.07871
54473.4 1.12757 0.0779(28) 128639. 0.07848 0.07871
54478.85 1.12769 0.0758(27) 134739. 0.07848 0.07872
54484.3 1.12780 0.0785(28) 127196. 0.07848 0.07872
54489.75 1.12791 0.0779(28) 130971. 0.07848 0.07872
54495.2 1.12802 0.0800(28) 124941. 0.07848 0.07872
54500.65 1.12814 0.0793(28) 128752. 0.07848 0.07872
54506.1 1.12825 0.0824(29) 121928. 0.07848 0.07872
54511.55 1.12836 0.0792(28) 129439. 0.07848 0.07873
54517.0 1.12848 0.0790(28) 125529. 0.07848 0.07873
54522.45 1.12859 0.0755(27) 134683. 0.07848 0.07873
54527.9 1.12870 0.0768(28) 130144. 0.07848 0.07873
54533.35 1.12881 0.0770(28) 131610. 0.07849 0.07873
54538.8 1.12893 0.0800(28) 126069. 0.07849 0.07874
54544.25 1.12904 0.0771(27) 133995. 0.07849 0.07874
54549.7 1.12915 0.0774(28) 128704. 0.07849 0.07874
54555.15 1.12926 0.0768(27) 132421. 0.07849 0.07875
54560.65 1.12938 0.0768(27) 133595. 0.07849 0.07875
54566.1 1.12949 0.0779(28) 126630. 0.07849 0.07875
54571.55 1.12960 0.0729(27) 138043. 0.07849 0.07873
54577.0 1.12972 0.0727(27) 138596. 0.07849 0.07873
54582.45 1.12983 0.0800(28) 126755. 0.07849 0.07873
54587.9 1.12994 0.0828(29) 119969. 0.07849 0.07874
54593.35 1.13006 0.0818(29) 121553. 0.07849 0.07874
54598.85 1.13017 0.0779(28) 131227. 0.07849 0.07875
54604.3 1.13028 0.0782(28) 130970. 0.07849 0.07875
54609.75 1.13040 0.0786(28) 130139. 0.07849 0.07876
54615.25 1.13051 0.0766(27) 133063. 0.07849 0.07876
54620.7 1.13062 0.0768(28) 130024. 0.07849 0.07877
54626.15 1.13073 0.0738(27) 138106. 0.07849 0.07871
54631.6 1.13085 0.0757(27) 132591. 0.07850 0.07872
54637.05 1.13096 0.0767(27) 133225. 0.07850 0.07873
54642.55 1.13107 0.0749(27) 137374. 0.07850 0.07873
54648.0 1.13119 0.0746(27) 134546. 0.07850 0.07874
54653.45 1.13130 0.0753(27) 134455. 0.07850 0.07875
54658.95 1.13141 0.0775(28) 130351. 0.07850 0.07875
54664.4 1.13153 0.0768(28) 130027. 0.07850 0.07876
54669.85 1.13164 0.0778(28) 129891. 0.07850 0.07877
54675.35 1.13175 0.0790(28) 129199. 0.07850 0.07878
54680.8 1.13187 0.0795(28) 124176. 0.07850 0.07879
54686.25 1.13198 0.0763(28) 131782. 0.07850 0.07879
54691.75 1.13209 0.0832(29) 119903. 0.07850 0.07880
54697.2 1.13221 0.0821(29) 122300. 0.07850 0.07881
54702.65 1.13232 0.0804(28) 124833. 0.07850 0.07882
54708.15 1.13243 0.0785(28) 128276. 0.07850 0.07883
54713.6 1.13255 0.0798(28) 124661. 0.07850 0.07884
54719.05 1.13266 0.0770(28) 131519. 0.07850 0.07886
54724.55 1.13277 0.0780(28) 129200. 0.07850 0.07887
54730.05 1.13289 0.0795(28) 125130. 0.07850 0.07888
54735.5 1.13300 0.0766(28) 128894. 0.07850 0.07889
54740.95 1.13311 0.0756(28) 132191. 0.07850 0.07891
54746.45 1.13323 0.0788(28) 127321. 0.07851 0.07892
54751.95 1.13334 0.0801(28) 126608. 0.07851 0.07894
54757.4 1.13345 0.0843(29) 115661. 0.07851 0.07896
54762.85 1.13356 0.0791(28) 126738. 0.07851 0.07897
54768.35 1.13368 0.0808(28) 123942. 0.07851 0.07899
54773.85 1.13379 0.0810(28) 124207. 0.07851 0.07901
54779.3 1.13391 0.0771(28) 129026. 0.07851 0.07903
54784.75 1.13402 0.0767(28) 131379. 0.07851 0.07905
54790.25 1.13413 0.0789(28) 129239. 0.07851 0.07908
54795.75 1.13425 0.0809(28) 126228. 0.07851 0.07910
54801.2 1.13436 0.0786(28) 128271. 0.07851 0.07913
54806.65 1.13447 0.0778(28) 130250. 0.07851 0.07916
54812.15 1.13459 0.0784(28) 130878. 0.07851 0.07919
54817.65 1.13470 0.0785(28) 130887. 0.07851 0.07922
54823.15 1.13481 0.0788(28) 129565. 0.07851 0.07925
54828.65 1.13493 0.0769(27) 134180. 0.07851 0.07929
54834.1 1.13504 0.0767(27) 132541. 0.07851 0.07933
54839.55 1.13515 0.0771(28) 131888. 0.07851 0.07938
54845.05 1.13527 0.0754(27) 135072. 0.07851 0.07942
54850.55 1.13538 0.0753(27) 137184. 0.07851 0.07948
54856.05 1.13549 0.0825(29) 122593. 0.07851 0.07953
54861.55 1.13561 0.0835(29) 120589. 0.07851 0.07960
54867.05 1.13572 0.0789(28) 132043. 0.07851 0.07967
54872.5 1.13583 0.0805(28) 125883. 0.07852 0.07975
54877.95 1.13595 0.0793(28) 129446. 0.07852 0.07984
54883.45 1.13606 0.0841(29) 120458. 0.07852 0.07994
54888.95 1.13618 0.0807(28) 126740. 0.07852 0.08006
54894.45 1.13629 0.0805(28) 126183. 0.07852 0.08020
54899.95 1.13640 0.0780(28) 130161. 0.07852 0.08037
54905.45 1.13652 0.0736(27) 141015. 0.07852 0.08058
54910.95 1.13663 0.0759(27) 135274. 0.07852 0.08083
54916.45 1.13674 0.0808(28) 123712. 0.07852 0.08114
54921.9 1.13686 0.0813(29) 122440. 0.07852 0.08152
54927.35 1.13697 0.0798(28) 127931. 0.07852 0.08197
54932.85 1.13708 0.0803(28) 127336. 0.07852 0.08251
54938.35 1.13720 0.0787(28) 130274. 0.07852 0.08315
54943.85 1.13731 0.0873(30) 113902. 0.07852 0.08392
54949.35 1.13743 0.0828(28) 123539. 0.07852 0.08474
54954.85 1.13754 0.0811(28) 124249. 0.07852 0.08561
54960.35 1.13765 0.0839(29) 120169. 0.07852 0.08651
54965.85 1.13777 0.0841(29) 119420. 0.07852 0.08738
54971.35 1.13788 0.0839(29) 119062. 0.07852 0.08816
54976.85 1.13800 0.0872(30) 114222. 0.07852 0.08880
54982.35 1.13811 0.0862(29) 116586. 0.07852 0.08929
54987.85 1.13822 0.0849(29) 118988. 0.07852 0.08966
54993.35 1.13834 0.0912(30) 108475. 0.07852 0.08995
54998.85 1.13845 0.0881(30) 114120. 0.07852 0.09025
55004.35 1.13856 0.0827(29) 122410. 0.07852 0.09063
55009.85 1.13868 0.0814(28) 125449. 0.07852 0.09116
55015.35 1.13879 0.0863(29) 116815. 0.07852 0.09194
55020.85 1.13891 0.0905(30) 111640. 0.07852 0.09303
55026.35 1.13902 0.0945(31) 106211. 0.07852 0.09451
55031.85 1.13913 0.0892(30) 112864. 0.07853 0.09643
55037.35 1.13925 0.0882(30) 113719. 0.07853 0.09881
55042.85 1.13936 0.0954(31) 104557. 0.07853 0.10163
55048.35 1.13948 0.1008(32) 98343. 0.07853 0.10483
55053.85 1.13959 0.1052(33) 94272. 0.07853 0.10826
55059.35 1.13970 0.1071(33) 94266. 0.07853 0.11169
55064.85 1.13982 0.1106(33) 91519. 0.07853 0.11483
55070.35 1.13993 0.122(4) 80025. 0.0785 0.1174
55075.85 1.14004 0.1165(34) 85293. 0.07853 0.11906
55081.4 1.14016 0.1074(32) 94783. 0.07853 0.11976
55086.95 1.14027 0.1090(33) 92210. 0.07853 0.11946
55092.45 1.14039 0.1090(33) 93171. 0.07853 0.11830
55097.95 1.14050 0.1112(33) 90522. 0.07853 0.11646
55103.45 1.14062 0.1111(33) 89470. 0.07853 0.11414
55108.95 1.14073 0.1013(32) 100017. 0.07853 0.11151
55114.45 1.14084 0.1027(32) 96558. 0.07853 0.10874
55119.95 1.14096 0.1020(32) 97838. 0.07853 0.10595
55125.45 1.14107 0.1002(31) 100785. 0.07853 0.10324
55130.95 1.14119 0.1012(32) 97442. 0.07853 0.10067
55136.5 1.14130 0.0902(30) 113943. 0.07853 0.09826
55142.05 1.14141 0.0877(29) 116591. 0.07853 0.09607
55147.55 1.14153 0.0890(30) 112483. 0.07853 0.09411
55153.05 1.14164 0.0918(30) 108276. 0.07853 0.09236
55158.55 1.14176 0.0914(30) 109967. 0.07853 0.09081
55164.05 1.14187 0.0885(29) 115966. 0.07853 0.08943
55169.6 1.14199 0.0906(30) 112057. 0.07853 0.08822
55175.15 1.14210 0.0887(30) 112920. 0.07853 0.08715
55180.65 1.14221 0.0831(29) 122541. 0.07853 0.08622
55186.15 1.14233 0.0805(28) 126616. 0.07853 0.08540
55191.65 1.14244 0.0834(29) 121366. 0.07853 0.08469
55197.15 1.14256 0.0840(29) 119352. 0.07853 0.08406
55202.7 1.14267 0.0782(27) 133594. 0.07853 0.08350
55208.25 1.14279 0.0851(29) 118581. 0.07853 0.08301
55213.75 1.14290 0.0850(29) 119417. 0.07853 0.08259
55219.25 1.14301 0.0877(30) 112999. 0.07853 0.08221
55224.8 1.14313 0.0771(27) 135742. 0.07853 0.08187
55230.35 1.14324 0.0802(28) 126558. 0.07853 0.08158
55235.85 1.14336 0.0786(28) 131995. 0.07853 0.08132
55241.35 1.14347 0.0823(28) 124879. 0.07853 0.08109
55246.85 1.14358 0.0832(28) 123868. 0.07853 0.08089
55252.4 1.14370 0.0805(28) 128994. 0.07853 0.08070
55257.95 1.14381 0.0806(28) 125337. 0.07853 0.08054
55263.45 1.14393 0.0752(27) 139605. 0.07853 0.08040
55269.0 1.14404 0.0787(27) 133359. 0.07853 0.08027
55274.55 1.14416 0.0838(29) 121027. 0.07853 0.08015
55280.05 1.14427 0.0875(30) 113872. 0.07853 0.08005
55285.55 1.14439 0.0819(28) 123986. 0.07853 0.07995
55291.1 1.14450 0.0796(28) 128406. 0.07853 0.07987
55296.65 1.14462 0.0816(28) 123531. 0.07854 0.07979
55302.15 1.14473 0.0828(29) 121249. 0.07854 0.07973
55307.7 1.14484 0.0812(28) 125254. 0.07854 0.07966
55313.25 1.14496 0.0820(28) 123805. 0.07854 0.07961
55318.75 1.14507 0.0821(29) 123068. 0.07854 0.07956
55324.3 1.14519 0.0837(29) 120422. 0.07854 0.07951
55329.85 1.14530 0.0808(28) 126021. 0.07854 0.07947
55335.35 1.14542 0.0776(28) 130499. 0.07854 0.07943
55340.85 1.14553 0.0794(28) 125856. 0.07854 0.07939
55346.4 1.14565 0.0819(28) 123142. 0.07854 0.07936
55351.95 1.14576 0.0823(29) 121207. 0.07854 0.07933
55357.5 1.14588 0.0821(29) 122223. 0.07854 0.07930
55363.05 1.14599 0.0770(28) 130888. 0.07854 0.07928
55368.55 1.14610 0.0802(29) 122355. 0.07854 0.07926
55374.1 1.14622 0.0773(27) 132323. 0.07854 0.07923
55379.65 1.14633 0.0800(28) 125973. 0.07854 0.07921
55385.15 1.14645 0.0865(30) 113539. 0.07854 0.07920
55390.7 1.14656 0.0823(28) 124251. 0.07854 0.07918
55396.25 1.14668 0.0804(28) 126336. 0.07854 0.07916
55401.8 1.14679 0.0803(28) 126990. 0.07854 0.07915
55407.35 1.14691 0.0787(28) 129424. 0.07854 0.07914
55412.85 1.14702 0.0772(28) 132140. 0.07854 0.07912
55418.4 1.14714 0.0764(27) 136039. 0.07854 0.07911
55423.95 1.14725 0.0813(28) 125676. 0.07854 0.07910
55429.5 1.14737 0.0790(28) 131258. 0.07854 0.07909
55435.05 1.14748 0.0806(28) 125215. 0.07854 0.07908
55440.6 1.14760 0.0786(28) 131406. 0.07854 0.07908
55446.15 1.14771 0.0805(28) 124526. 0.07854 0.07907
55451.65 1.14782 0.0786(28) 128514. 0.07854 0.07906
55457.2 1.14794 0.0775(27) 133389. 0.07854 0.07906
55462.75 1.14805 0.0799(28) 129239. 0.07854 0.07905
55468.3 1.14817 0.0783(27) 134251. 0.07854 0.07905
55473.85 1.14828 0.0805(28) 126800. 0.07854 0.07904
55479.4 1.14840 0.0793(28) 130824. 0.07854 0.07904
55484.95 1.14851 0.0795(28) 128164. 0.07854 0.07904
55490.5 1.14863 0.0747(27) 141867. 0.07854 0.07903
55496.05 1.14874 0.0788(28) 129157. 0.07854 0.07903
55501.6 1.14886 0.0753(27) 139102. 0.07854 0.07903
55507.15 1.14897 0.0770(28) 130834. 0.07854 0.07903
55512.7 1.14909 0.0697(26) 149968. 0.07854 0.07903
55518.25 1.14920 0.0766(27) 132625. 0.07854 0.07903
55523.8 1.14932 0.0783(28) 131896. 0.07854 0.07903
55529.35 1.14943 0.0791(28) 128713. 0.07854 0.07903
55534.9 1.14955 0.0785(28) 131797. 0.07854 0.07903
55540.45 1.14966 0.0827(29) 122651. 0.07854 0.07903
55546.0 1.14978 0.0838(29) 122960. 0.07854 0.07903
55551.55 1.14989 0.0825(29) 122177. 0.07854 0.07904
55557.1 1.15001 0.0766(27) 134263. 0.07854 0.07904
55562.7 1.15012 0.0808(28) 125170. 0.07854 0.07904
55568.25 1.15024 0.0806(28) 125257. 0.07854 0.07905
55573.8 1.15035 0.0804(28) 127920. 0.07854 0.07905
55579.35 1.15047 0.0812(28) 124910. 0.07854 0.07906
55584.9 1.15058 0.0779(27) 132314. 0.07854 0.07906
55590.45 1.15070 0.0782(28) 128443. 0.07854 0.07907
55596.0 1.15081 0.0720(26) 145168. 0.07854 0.07907
55601.6 1.15093 0.0779(28) 131553. 0.07854 0.07908
55607.15 1.15104 0.0802(28) 123927. 0.07854 0.07909
55612.7 1.15116 0.0788(28) 129393. 0.07854 0.07910
55618.25 1.15127 0.0817(28) 125578. 0.07854 0.07911
55623.8 1.15139 0.0800(28) 129286. 0.07854 0.07912
55629.4 1.15150 0.0764(28) 131919. 0.07854 0.07913
55634.95 1.15162 0.0753(27) 132882. 0.07854 0.07914
55640.5 1.15173 0.0808(28) 124877. 0.07854 0.07915
55646.1 1.15185 0.0778(27) 132549. 0.07854 0.07916
55651.65 1.15196 0.0787(28) 126436. 0.07854 0.07918
55657.2 1.15208 0.0740(27) 138577. 0.07854 0.07919
55662.8 1.15220 0.0794(28) 128094. 0.07854 0.07921
55668.35 1.15231 0.0827(28) 124462. 0.07854 0.07922
55673.9 1.15243 0.0840(29) 122368. 0.07854 0.07924
55679.5 1.15254 0.0799(28) 129195. 0.07854 0.07926
55685.05 1.15266 0.0809(28) 124634. 0.07854 0.07928
55690.6 1.15277 0.0739(27) 140569. 0.07854 0.07930
55696.2 1.15289 0.0813(28) 123389. 0.07853 0.07933
55701.75 1.15300 0.0818(29) 121929. 0.07853 0.07935
55707.3 1.15312 0.0747(27) 139210. 0.07853 0.07938
55712.9 1.15323 0.0783(28) 129482. 0.07853 0.07940
55718.45 1.15335 0.0829(29) 120063. 0.07853 0.07943
55724.0 1.15346 0.0830(29) 121542. 0.07853 0.07947
55729.6 1.15358 0.0829(29) 120669. 0.07853 0.07950
55735.2 1.15369 0.0801(28) 126140. 0.07853 0.07954
55740.75 1.15381 0.0786(28) 128087. 0.07853 0.07958
55746.3 1.15392 0.0795(28) 128296. 0.07853 0.07962
55751.9 1.15404 0.0795(28) 126332. 0.07853 0.07967
55757.5 1.15416 0.0739(27) 140242. 0.07853 0.07972
55763.05 1.15427 0.0806(28) 124379. 0.07853 0.07977
55768.6 1.15439 0.0811(28) 125713. 0.07853 0.07983
55774.2 1.15450 0.0831(29) 121229. 0.07853 0.07990
55779.8 1.15462 0.0778(28) 132039. 0.07853 0.07997
55785.4 1.15473 0.0790(28) 127590. 0.07853 0.08004
55790.95 1.15485 0.0807(28) 123168. 0.07853 0.08012
55796.5 1.15496 0.0785(28) 130557. 0.07853 0.08021
55802.1 1.15508 0.0761(27) 136987. 0.07853 0.08031
55807.7 1.15520 0.0805(28) 125264. 0.07853 0.08042
55813.25 1.15531 0.0807(28) 123777. 0.07853 0.08054
55818.8 1.15543 0.0825(28) 123628. 0.07853 0.08067
55824.4 1.15554 0.0827(29) 122973. 0.07853 0.08082
55830.0 1.15566 0.0785(27) 132312. 0.07853 0.08098
55835.6 1.15577 0.0815(28) 124716. 0.07853 0.08116
55841.2 1.15589 0.0765(27) 135688. 0.07853 0.08137
55846.75 1.15600 0.0810(28) 125017. 0.07853 0.08160
55852.3 1.15612 0.0786(27) 133779. 0.07853 0.08187
55857.9 1.15623 0.0766(27) 135909. 0.07853 0.08218
55863.5 1.15635 0.0798(28) 127997. 0.07853 0.08255
55869.1 1.15647 0.0800(28) 127497. 0.07853 0.08300
55874.7 1.15658 0.0795(28) 129196. 0.07853 0.08354
55880.3 1.15670 0.0832(28) 123731. 0.07853 0.08421
55885.9 1.15681 0.0836(29) 123050. 0.07853 0.08506
55891.45 1.15693 0.0840(29) 121107. 0.07853 0.08613
55897.0 1.15704 0.0899(30) 112760. 0.07853 0.08748
55902.6 1.15716 0.0905(30) 112692. 0.07853 0.08921
55908.2 1.15728 0.0905(30) 112016. 0.07853 0.09138
55913.8 1.15739 0.0968(31) 102476. 0.07853 0.09405
55919.4 1.15751 0.0988(32) 100584. 0.07853 0.09730
55925.0 1.15762 0.0981(31) 103187. 0.07853 0.10115
55930.6 1.15774 0.1020(32) 99122. 0.07853 0.10560
55936.2 1.15786 0.1032(32) 99079. 0.07853 0.11058
55941.8 1.15797 0.1131(34) 87680. 0.07853 0.11590
55947.4 1.15809 0.122(4) 80355. 0.0785 0.1213
55953.0 1.15820 0.129(4) 76364. 0.0785 0.1263
55958.6 1.15832 0.139(4) 69678. 0.0785 0.1306
55964.15 1.15843 0.138(4) 70699. 0.0785 0.1336
55969.7 1.15855 0.146(4) 66185. 0.0785 0.1354
55975.3 1.15867 0.148(4) 66045. 0.0785 0.1359
55980.9 1.15878 0.151(4) 63471. 0.0785 0.1352
55986.5 1.15890 0.146(4) 66974. 0.0785 0.1335
55992.1 1.15901 0.147(4) 66356. 0.0785 0.1310
55997.7 1.15913 0.143(4) 69160. 0.0785 0.1278
56003.3 1.15924 0.140(4) 70062. 0.0785 0.1242
56008.9 1.15936 0.133(4) 74552. 0.0785 0.1204
56014.5 1.15948 0.129(4) 77036. 0.0785 0.1166
56020.1 1.15959 0.129(4) 76781. 0.0785 0.1129
56025.7 1.15971 0.1172(34) 86848. 0.07852 0.10935
56031.3 1.15982 0.1131(33) 89338. 0.07852 0.10604
56036.95 1.15994 0.1069(32) 96399. 0.07852 0.10298
56042.6 1.16006 0.1072(32) 94968. 0.07852 0.10022
56048.2 1.16017 0.1031(32) 100465. 0.07852 0.09776
56053.8 1.16029 0.1010(31) 101392. 0.07852 0.09557
56059.4 1.16041 0.0952(30) 109216. 0.07852 0.09364
56065.0 1.16052 0.0978(31) 105459. 0.07852 0.09193
56070.6 1.16064 0.0958(30) 108932. 0.07852 0.09043
56076.2 1.16075 0.0900(29) 116181. 0.07852 0.08911
56081.8 1.16087 0.0868(29) 119227. 0.07852 0.08796
56087.4 1.16099 0.0860(29) 120800. 0.07852 0.08693
56093.0 1.16110 0.0841(28) 124338. 0.07852 0.08604
56098.6 1.16122 0.0855(29) 121212. 0.07852 0.08524
56104.2 1.16133 0.0899(30) 113765. 0.07852 0.08455
56109.8 1.16145 0.0889(30) 114539. 0.07852 0.08395
56115.45 1.16157 0.0832(28) 126057. 0.07851 0.08342
56121.1 1.16168 0.0882(30) 114532. 0.07851 0.08295
56126.7 1.16180 0.0870(29) 118016. 0.07851 0.08253
56132.3 1.16192 0.0892(30) 113431. 0.07851 0.08217
56137.9 1.16203 0.0848(29) 119921. 0.07851 0.08185
56143.5 1.16215 0.0800(28) 129040. 0.07851 0.08156
56149.1 1.16226 0.0840(29) 121747. 0.07851 0.08131
56154.75 1.16238 0.0815(28) 130039. 0.07851 0.08108
56160.4 1.16250 0.0825(28) 124762. 0.07851 0.08088
56166.0 1.16261 0.0783(27) 132355. 0.07851 0.08070
56171.6 1.16273 0.0757(27) 140018. 0.07851 0.08054
56177.2 1.16285 0.0791(27) 134855. 0.07851 0.08039
56182.8 1.16296 0.0848(29) 121353. 0.07851 0.08026
56188.45 1.16308 0.0780(27) 136813. 0.07851 0.08015
56194.1 1.16319 0.0794(28) 131385. 0.07851 0.08004
56199.7 1.16331 0.0801(28) 130133. 0.07851 0.07994
56205.3 1.16343 0.0780(27) 134112. 0.07851 0.07985
56210.9 1.16354 0.0761(27) 137905. 0.07851 0.07978
56216.55 1.16366 0.0764(27) 141302. 0.07851 0.07970
56222.2 1.16378 0.0807(28) 128460. 0.07851 0.07964
56227.8 1.16389 0.0781(27) 133918. 0.07851 0.07958
56233.4 1.16401 0.0787(27) 132251. 0.07851 0.07952
56239.0 1.16412 0.0779(27) 136096. 0.07850 0.07947
56244.65 1.16424 0.0796(27) 135239. 0.07850 0.07942
56250.3 1.16436 0.0805(28) 130461. 0.07850 0.07938
56255.9 1.16447 0.0810(28) 128670. 0.07850 0.07934
56261.5 1.16459 0.0808(28) 130609. 0.07850 0.07930
56267.15 1.16471 0.0794(27) 134191. 0.07850 0.07927
56272.8 1.16482 0.0775(27) 135689. 0.07850 0.07923
56278.4 1.16494 0.0789(28) 131132. 0.07850 0.07920
56284.05 1.16506 0.0749(26) 143914. 0.07850 0.07917
56289.7 1.16517 0.0830(28) 124142. 0.07850 0.07915
56295.3 1.16529 0.0848(29) 117696. 0.07850 0.07913
56300.9 1.16541 0.0808(28) 124583. 0.07850 0.07910
56306.55 1.16552 0.0820(28) 125899. 0.07850 0.07908
56312.2 1.16564 0.0802(28) 128481. 0.07850 0.07906
56317.8 1.16576 0.0819(28) 123980. 0.07850 0.07904
56323.45 1.16587 0.0843(29) 121953. 0.07850 0.07902
56329.1 1.16599 0.0835(29) 122005. 0.07850 0.07900
56334.7 1.16611 0.0812(28) 125067. 0.07850 0.07898
56340.35 1.16622 0.0796(28) 129369. 0.07850 0.07897
56346.0 1.16634 0.0827(29) 122053. 0.07849 0.07895
56351.6 1.16646 0.0847(29) 119240. 0.07849 0.07894
56357.25 1.16657 0.0822(28) 125972. 0.07849 0.07892
56362.9 1.16669 0.0826(28) 123619. 0.07849 0.07891
56368.5 1.16681 0.0863(29) 116387. 0.07849 0.07890
56374.15 1.16692 0.0839(29) 122076. 0.07849 0.07889
56379.8 1.16704 0.0813(28) 125311. 0.07849 0.07887
56385.45 1.16716 0.0808(28) 128140. 0.07849 0.07886
56391.1 1.16727 0.0787(28) 130532. 0.07849 0.07885
56396.7 1.16739 0.0802(28) 128429. 0.07849 0.07884
56402.35 1.16751 0.0825(28) 125708. 0.07849 0.07883
56408.0 1.16762 0.0797(28) 129196. 0.07849 0.07882
56413.65 1.16774 0.0785(27) 133046. 0.07849 0.07881
56419.3 1.16786 0.0788(28) 128898. 0.07849 0.07881
56424.9 1.16797 0.0716(26) 144315. 0.07849 0.07880
56430.55 1.16809 0.0753(27) 135588. 0.07849 0.07879
56436.2 1.16821 0.0791(28) 129362. 0.07849 0.07878
56441.85 1.16832 0.0845(29) 120902. 0.07848 0.07877
56447.5 1.16844 0.0800(28) 127668. 0.07848 0.07877
56453.15 1.16856 0.0808(28) 125428. 0.07848 0.07876
56458.8 1.16867 0.0784(28) 129145. 0.07848 0.07875
56464.45 1.16879 0.0801(28) 127395. 0.07848 0.07875
56470.1 1.16891 0.0835(29) 120147. 0.07848 0.07874
56475.7 1.16902 0.0808(28) 127012. 0.07848 0.07873
56481.35 1.16914 0.0871(29) 117112. 0.07848 0.07873
56487.0 1.16926 0.0801(28) 128034. 0.07848 0.07872
56492.65 1.16938 0.0751(27) 137924. 0.07848 0.07872
56498.3 1.16949 0.0783(28) 127744. 0.07848 0.07871
56503.95 1.16961 0.0777(28) 130719. 0.07848 0.07871
56509.6 1.16973 0.0812(29) 122272. 0.07848 0.07870
56515.25 1.16984 0.0792(28) 128671. 0.07848 0.07870
56520.9 1.16996 0.0858(29) 115819. 0.07848 0.07869
56526.55 1.17008 0.0867(29) 115715. 0.07847 0.07869
56532.2 1.17019 0.0840(29) 117345. 0.07847 0.07868
56537.85 1.17031 0.0742(27) 138927. 0.07847 0.07869
56543.55 1.17043 0.0763(27) 136042. 0.07847 0.07868
56549.2 1.17055 0.0809(28) 124859. 0.07847 0.07868
56554.85 1.17066 0.0743(27) 140704. 0.07847 0.07868
56560.5 1.17078 0.0755(27) 135467. 0.07847 0.07867
56566.15 1.17090 0.0737(27) 142350. 0.07847 0.07867
56571.8 1.17101 0.0792(28) 129370. 0.07847 0.07867
56577.45 1.17113 0.0830(28) 124762. 0.07847 0.07866
56583.15 1.17125 0.0823(28) 125812. 0.07847 0.07866
56588.8 1.17137 0.0807(28) 125383. 0.07847 0.07866
56594.45 1.17148 0.0752(27) 140605. 0.07847 0.07865
56600.1 1.17160 0.0809(28) 124082. 0.07847 0.07865
56605.75 1.17172 0.0760(27) 134579. 0.07846 0.07865
56611.45 1.17184 0.0803(28) 127026. 0.07846 0.07865
56617.1 1.17195 0.0813(28) 125220. 0.07846 0.07864
56622.75 1.17207 0.0808(28) 128180. 0.07846 0.07864
56628.4 1.17219 0.0792(28) 128637. 0.07846 0.07864
56634.05 1.17230 0.0800(28) 128665. 0.07846 0.07864
56639.75 1.17242 0.0820(28) 126497. 0.07846 0.07863
56645.4 1.17254 0.0803(28) 125953. 0.07846 0.07865
56651.05 1.17265 0.0758(27) 136728. 0.07846 0.07865
56656.75 1.17277 0.0758(27) 137587. 0.07846 0.07865
56662.4 1.17289 0.0784(28) 131413. 0.07846 0.07865
56668.05 1.17301 0.0773(27) 137018. 0.07846 0.07865
56673.75 1.17312 0.0775(27) 135455. 0.07846 0.07865
56679.4 1.17324 0.0816(28) 123824. 0.07845 0.07865
56685.05 1.17336 0.0785(27) 132341. 0.07845 0.07865
56690.75 1.17348 0.0830(28) 124590. 0.07845 0.07864
56696.4 1.17359 0.0830(28) 124885. 0.07845 0.07864
56702.05 1.17371 0.0816(28) 126266. 0.07845 0.07864
56707.75 1.17383 0.0815(28) 125184. 0.07845 0.07864
56713.4 1.17395 0.0815(28) 124103. 0.07845 0.07864
56719.05 1.17406 0.0835(29) 122840. 0.07845 0.07864
56724.75 1.17418 0.0781(27) 134874. 0.07845 0.07864
56730.45 1.17430 0.0796(28) 129372. 0.07845 0.07864
56736.1 1.17442 0.0817(28) 124480. 0.07845 0.07863
56741.75 1.17453 0.0819(28) 126454. 0.07845 0.07863
56747.45 1.17465 0.0802(28) 129526. 0.07845 0.07863
56753.15 1.17477 0.0754(27) 138941. 0.07844 0.07863
56758.8 1.17489 0.0771(27) 133046. 0.07844 0.07863
56764.45 1.17500 0.0787(28) 131699. 0.07844 0.07863
56770.15 1.17512 0.0796(28) 129416. 0.07844 0.07863
56775.85 1.17524 0.0748(27) 141228. 0.07844 0.07863
56781.5 1.17536 0.0783(28) 131844. 0.07844 0.07863
56787.15 1.17547 0.0768(27) 135444. 0.07844 0.07863
56792.85 1.17559 0.0812(28) 125753. 0.07844 0.07863
56798.55 1.17571 0.0805(28) 129000. 0.07844 0.07863
56804.25 1.17583 0.0775(27) 134004. 0.07844 0.07863
56809.9 1.17594 0.0750(27) 138437. 0.07844 0.07863
56815.55 1.17606 0.0794(28) 130733. 0.07843 0.07863
56821.25 1.17618 0.0815(28) 130621. 0.07843 0.07863
56826.95 1.17630 0.0832(28) 125733. 0.07843 0.07863
56832.65 1.17641 0.0772(27) 133949. 0.07843 0.07863
56838.3 1.17653 0.0730(26) 143595. 0.07843 0.07863
56843.95 1.17665 0.0784(28) 131206. 0.07843 0.07863
56849.65 1.17677 0.0801(28) 128294. 0.07843 0.07863
56855.35 1.17688 0.0795(28) 129925. 0.07843 0.07863
56861.05 1.17700 0.0766(27) 136388. 0.07843 0.07863
56866.75 1.17712 0.0786(27) 132594. 0.07843 0.07863
56872.45 1.17724 0.0801(28) 128846. 0.07843 0.07863
56878.1 1.17736 0.0785(28) 129665. 0.07842 0.07864
56883.75 1.17747 0.0758(27) 136416. 0.07842 0.07864
56889.45 1.17759 0.0789(28) 130101. 0.07842 0.07864
56895.15 1.17771 0.0797(28) 130478. 0.07842 0.07864
56900.85 1.17783 0.0785(28) 131371. 0.07842 0.07864
56906.55 1.17794 0.0768(27) 134831. 0.07842 0.07864
56912.25 1.17806 0.0748(27) 139792. 0.07842 0.07864
56917.95 1.17818 0.0782(28) 131942. 0.07842 0.07865
56923.65 1.17830 0.0820(28) 127408. 0.07842 0.07865
56929.35 1.17842 0.0831(28) 123778. 0.07842 0.07865
56935.05 1.17853 0.0807(28) 127501. 0.07842 0.07865
56940.75 1.17865 0.0837(29) 122695. 0.07841 0.07866
56946.45 1.17877 0.0782(27) 133970. 0.07841 0.07866
56952.1 1.17889 0.0745(27) 140819. 0.07841 0.07866
56957.75 1.17900 0.0754(27) 140355. 0.07841 0.07867
56963.45 1.17912 0.0779(27) 133465. 0.07841 0.07867
56969.15 1.17924 0.0787(28) 131492. 0.07841 0.07867
56974.85 1.17936 0.0801(28) 130250. 0.07841 0.07868
56980.55 1.17948 0.0796(28) 130414. 0.07841 0.07864
56986.25 1.17959 0.0788(27) 132364. 0.07841 0.07864
56991.95 1.17971 0.0766(27) 136078. 0.07841 0.07865
56997.65 1.17983 0.0739(27) 140612. 0.07840 0.07865
57003.35 1.17995 0.0793(28) 129608. 0.07840 0.07866
57009.05 1.18007 0.0792(28) 131049. 0.07840 0.07866
57014.75 1.18018 0.0783(27) 132232. 0.07840 0.07867
57020.45 1.18030 0.0812(28) 125318. 0.07840 0.07867
57026.15 1.18042 0.0807(28) 126539. 0.07840 0.07868
57031.85 1.18054 0.0810(28) 125201. 0.07840 0.07869
57037.55 1.18066 0.0779(28) 131291. 0.07840 0.07870
57043.25 1.18077 0.0744(27) 139982. 0.07840 0.07871
57048.95 1.18089 0.0752(27) 135801. 0.07840 0.07872
57054.7 1.18101 0.0726(26) 146499. 0.07839 0.07874
57060.45 1.18113 0.0777(27) 133433. 0.07839 0.07875
57066.15 1.18125 0.0790(28) 127370. 0.07839 0.07877
57071.85 1.18137 0.0797(28) 124986. 0.07839 0.07878
57077.55 1.18148 0.0789(28) 129330. 0.07839 0.07880
57083.25 1.18160 0.0829(29) 122375. 0.07839 0.07882
57088.95 1.18172 0.0858(29) 116608. 0.07839 0.07884
57094.65 1.18184 0.0788(28) 131715. 0.07839 0.07886
57100.35 1.18196 0.0837(29) 119707. 0.07839 0.07888
57106.05 1.18207 0.0745(27) 141108. 0.07838 0.07891
57111.75 1.18219 0.0797(28) 127617. 0.07838 0.07894
57117.45 1.18231 0.0781(28) 131752. 0.07838 0.07898
57123.15 1.18243 0.0830(28) 123237. 0.07838 0.07901
57128.9 1.18255 0.0827(28) 124982. 0.07838 0.07906
57134.65 1.18267 0.0807(28) 124933. 0.07838 0.07911
57140.35 1.18278 0.0827(29) 122257. 0.07838 0.07917
57146.05 1.18290 0.0806(28) 126189. 0.07838 0.07924
57151.75 1.18302 0.0764(27) 133424. 0.07838 0.07933
57157.45 1.18314 0.0810(28) 124843. 0.07837 0.07944
57163.2 1.18326 0.0787(27) 133009. 0.07837 0.07957
57168.95 1.18338 0.0797(28) 129410. 0.07837 0.07974
57174.65 1.18349 0.0821(28) 123847. 0.07837 0.07995
57180.35 1.18361 0.0810(28) 125511. 0.07837 0.08021
57186.05 1.18373 0.0792(28) 130673. 0.07837 0.08053
57191.75 1.18385 0.0818(28) 127579. 0.07837 0.08091
57197.5 1.18397 0.0811(28) 131345. 0.07837 0.08137
57203.25 1.18409 0.0809(28) 130272. 0.07837 0.08190
57208.95 1.18420 0.0831(28) 124763. 0.07836 0.08248
57214.65 1.18432 0.0821(28) 125440. 0.07836 0.08310
57220.35 1.18444 0.0811(28) 126735. 0.07836 0.08374
57226.1 1.18456 0.0830(28) 125040. 0.07836 0.08435
57231.85 1.18468 0.0848(29) 121471. 0.07836 0.08489
57237.55 1.18480 0.0823(28) 125846. 0.07836 0.08530
57243.25 1.18491 0.0825(28) 125490. 0.07836 0.08560
57249.0 1.18503 0.0847(28) 123299. 0.07836 0.08578
57254.75 1.18515 0.0827(28) 124633. 0.07835 0.08588
57260.45 1.18527 0.0789(27) 132599. 0.07835 0.08593
57266.15 1.18539 0.0850(29) 121400. 0.07835 0.08597
57271.9 1.18551 0.0820(28) 130324. 0.07835 0.08603
57277.65 1.18563 0.0871(29) 117686. 0.07835 0.08612
57283.35 1.18574 0.0885(29) 116237. 0.07835 0.08626
57289.1 1.18586 0.0863(29) 121982. 0.07835 0.08642
57294.85 1.18598 0.0901(30) 113612. 0.07835 0.08658
57300.55 1.18610 0.0922(30) 111165. 0.07835 0.08671
57306.25 1.18622 0.0917(30) 112392. 0.07834 0.08675
57312.0 1.18634 0.0923(30) 111977. 0.07834 0.08668
57317.75 1.18646 0.0895(29) 116040. 0.07834 0.08650
57323.45 1.18658 0.0935(30) 108605. 0.07834 0.08622
57329.2 1.18669 0.0960(31) 106771. 0.07834 0.08585
57334.95 1.18681 0.1030(32) 95691. 0.07834 0.08541
57340.65 1.18693 0.0927(30) 110962. 0.07834 0.08493
57346.4 1.18705 0.0908(30) 114632. 0.07834 0.08443
57352.15 1.18717 0.0908(30) 111812. 0.07833 0.08393
57357.85 1.18729 0.0880(29) 117048. 0.07833 0.08345
57363.6 1.18741 0.0885(29) 117494. 0.07833 0.08300
57369.35 1.18753 0.0866(29) 118875. 0.07833 0.08258
57375.1 1.18764 0.0852(29) 121800. 0.07833 0.08220
57380.85 1.18776 0.0870(29) 117574. 0.07833 0.08186
57386.55 1.18788 0.0863(29) 118338. 0.07833 0.08157
57392.3 1.18800 0.0798(28) 130908. 0.07833 0.08131
57398.05 1.18812 0.0822(28) 125950. 0.07832 0.08109
57403.75 1.18824 0.0851(29) 120523. 0.07832 0.08091
57409.5 1.18836 0.0838(28) 123851. 0.07832 0.08075
57415.25 1.18848 0.0810(28) 129587. 0.07832 0.08063
57421.0 1.18859 0.0837(29) 123015. 0.07832 0.08052
57426.75 1.18871 0.0809(28) 128986. 0.07832 0.08045
57432.5 1.18883 0.0791(27) 134037. 0.07832 0.08039
57438.25 1.18895 0.0809(28) 126675. 0.07831 0.08036
57443.95 1.18907 0.0775(27) 134965. 0.07831 0.08035
57449.7 1.18919 0.0771(27) 138758. 0.07831 0.08037
57455.45 1.18931 0.0838(29) 122762. 0.07831 0.08040
57461.2 1.18943 0.0816(28) 128077. 0.07831 0.08047
57466.95 1.18955 0.0815(28) 127049. 0.07831 0.08057
57472.7 1.18966 0.0764(27) 137956. 0.07831 0.08070
57478.45 1.18978 0.0771(27) 133610. 0.07831 0.08089
57484.2 1.18990 0.0761(27) 138816. 0.07830 0.08113
57489.95 1.19002 0.0828(28) 123709. 0.07830 0.08145
57495.7 1.19014 0.0839(28) 125308. 0.07830 0.08185
57501.45 1.19026 0.0842(28) 124700. 0.07830 0.08236
57507.2 1.19038 0.0814(28) 131279. 0.07830 0.08298
57512.95 1.19050 0.0822(28) 128821. 0.07830 0.08372
57518.7 1.19062 0.0831(28) 129000. 0.07830 0.08458
57524.45 1.19074 0.0835(28) 125832. 0.07829 0.08556
57530.2 1.19086 0.0845(28) 124878. 0.07829 0.08663
57535.95 1.19097 0.0838(28) 124949. 0.07829 0.08774
57541.7 1.19109 0.0827(28) 126981. 0.07829 0.08883
57547.45 1.19121 0.0846(28) 125074. 0.07829 0.08982
57553.2 1.19133 0.0874(29) 121691. 0.07829 0.09063
57558.95 1.19145 0.0843(28) 123788. 0.07829 0.09123
57564.7 1.19157 0.0882(29) 117789. 0.07829 0.09161
57570.5 1.19169 0.0861(28) 125257. 0.07828 0.09183
57576.25 1.19181 0.0900(29) 115738. 0.07828 0.09194
57582.0 1.19193 0.0870(29) 122384. 0.07828 0.09201
57587.75 1.19205 0.0855(29) 122474. 0.07828 0.09210
57593.5 1.19217 0.0870(29) 121686. 0.07828 0.09227
57599.25 1.19228 0.0905(29) 115373. 0.07828 0.09259
57605.0 1.19240 0.0858(28) 123841. 0.07828 0.09309
57610.8 1.19252 0.0818(28) 129688. 0.07827 0.09385
57616.55 1.19264 0.0821(28) 128214. 0.07827 0.09489
57622.3 1.19276 0.0930(30) 111677. 0.07827 0.09624
57628.1 1.19288 0.0927(30) 112413. 0.07827 0.09794
57633.85 1.19300 0.0887(29) 117343. 0.07827 0.09988
57639.6 1.19312 0.0938(30) 111059. 0.07827 0.10202
57645.35 1.19324 0.0981(31) 104182. 0.07827 0.10424
57651.1 1.19336 0.1010(31) 101875. 0.07826 0.10636
57656.9 1.19348 0.1006(31) 103578. 0.07826 0.10818
57662.65 1.19360 0.1033(32) 98195. 0.07826 0.10948
57668.4 1.19372 0.1054(32) 96953. 0.07826 0.11014
57674.2 1.19384 0.1065(32) 97100. 0.07826 0.11011
57679.95 1.19396 0.1099(33) 92051. 0.07826 0.10942
57685.7 1.19407 0.1117(33) 91533. 0.07825 0.10818
57691.5 1.19419 0.1076(32) 95482. 0.07825 0.10650
57697.25 1.19431 0.1042(32) 96284. 0.07825 0.10455
57703.0 1.19443 0.1014(31) 101364. 0.07825 0.10246
57708.8 1.19455 0.1079(33) 93376. 0.07825 0.10027
57714.6 1.19467 0.0982(31) 105406. 0.07825 0.09812
57720.35 1.19479 0.0965(31) 104540. 0.07825 0.09607
57726.1 1.19491 0.0931(30) 109454. 0.07824 0.09418
57731.9 1.19503 0.0934(30) 110065. 0.07824 0.09241
57737.7 1.19515 0.0860(29) 122844. 0.07824 0.09080
57743.45 1.19527 0.0918(30) 109303. 0.07824 0.08938
57749.2 1.19539 0.0860(29) 121420. 0.07824 0.08811
57755.0 1.19551 0.0870(29) 120031. 0.07824 0.08698
57760.8 1.19563 0.0899(30) 114000. 0.07824 0.08599
57766.55 1.19575 0.0834(28) 124723. 0.07823 0.08514
57772.3 1.19587 0.0844(29) 122306. 0.07823 0.08438
57778.1 1.19599 0.0827(28) 124137. 0.07823 0.08372
57783.9 1.19611 0.0827(28) 125637. 0.07823 0.08314
57789.65 1.19623 0.0857(29) 119801. 0.07823 0.08263
57795.4 1.19635 0.0863(29) 119158. 0.07823 0.08219
57801.2 1.19647 0.0839(28) 124626. 0.07822 0.08180
57807.0 1.19659 0.0820(28) 130146. 0.07822 0.08146
57812.8 1.19671 0.0824(28) 126977. 0.07822 0.08116
57818.55 1.19682 0.0817(28) 125739. 0.07822 0.08089
57824.3 1.19694 0.0834(28) 123692. 0.07822 0.08066
57830.1 1.19706 0.0814(28) 128827. 0.07822 0.08046
57835.9 1.19718 0.0817(28) 126979. 0.07821 0.08027
57841.7 1.19730 0.0801(28) 130505. 0.07821 0.08011
57847.5 1.19742 0.0815(28) 128639. 0.07821 0.07997
57853.25 1.19754 0.0775(27) 133617. 0.07821 0.07984
57859.0 1.19766 0.0756(27) 138431. 0.07821 0.07973
57864.8 1.19778 0.0771(27) 137391. 0.07821 0.07962
57870.6 1.19790 0.0802(28) 130186. 0.07821 0.07953
57876.4 1.19802 0.0820(28) 125384. 0.07820 0.07945
57882.2 1.19814 0.0809(28) 128717. 0.07820 0.07937
57888.0 1.19826 0.0801(28) 131121. 0.07820 0.07930
57893.8 1.19838 0.0844(29) 121070. 0.07820 0.07924
57899.55 1.19850 0.0808(28) 124854. 0.07820 0.07919
57905.3 1.19862 0.0794(28) 129311. 0.07820 0.07914
57911.1 1.19874 0.0804(28) 129238. 0.07819 0.07909
57916.9 1.19886 0.0790(28) 132142. 0.07819 0.07905
57922.7 1.19898 0.0801(28) 127903. 0.07819 0.07901
57928.5 1.19910 0.0771(27) 134012. 0.07819 0.07898
57934.3 1.19922 0.0807(28) 127436. 0.07819 0.07894
57940.1 1.19934 0.0754(27) 138798. 0.07819 0.07891
57945.9 1.19946 0.0767(27) 134196. 0.07818 0.07888
57951.7 1.19958 0.0805(28) 128227. 0.07818 0.07886
57957.5 1.19970 0.0767(27) 135880. 0.07818 0.07883
57963.3 1.19982 0.0828(29) 121901. 0.07818 0.07881
57969.1 1.19994 0.0807(28) 127577. 0.07818 0.07879
57974.9 1.20006 0.0816(28) 125578. 0.07818 0.07877
57980.7 1.20018 0.0812(28) 127178. 0.07817 0.07875
57986.5 1.20030 0.0773(27) 134457. 0.07817 0.07874
57992.3 1.20042 0.0773(27) 135263. 0.07817 0.07872
57998.1 1.20054 0.0815(28) 126833. 0.07817 0.07871
58003.9 1.20066 0.0799(28) 128593. 0.07817 0.07869
58009.7 1.20078 0.0813(28) 125649. 0.07817 0.07868
58015.5 1.20090 0.0817(28) 125776. 0.07816 0.07867
58021.3 1.20102 0.0797(28) 128965. 0.07816 0.07865
58027.1 1.20114 0.0788(28) 129934. 0.07816 0.07864
58032.9 1.20126 0.0781(28) 131265. 0.07816 0.07863
58038.7 1.20138 0.0781(28) 132201. 0.07816 0.07862
58044.5 1.20150 0.0780(28) 131587. 0.07816 0.07861
58050.3 1.20162 0.0768(27) 132515. 0.07815 0.07861
58056.1 1.20174 0.0765(27) 134488. 0.07815 0.07860
58061.9 1.20186 0.0829(29) 122380. 0.07815 0.07859
58067.7 1.20198 0.0813(28) 126514. 0.07815 0.07858
58073.5 1.20210 0.0796(28) 129606. 0.07815 0.07858
58079.3 1.20222 0.0854(29) 117872. 0.07815 0.07857
58085.1 1.20234 0.0794(28) 129793. 0.07814 0.07856
58090.9 1.20246 0.0845(29) 119082. 0.07814 0.07856
58096.7 1.20258 0.0806(28) 128834. 0.07814 0.07855
58102.5 1.20270 0.0791(28) 130238. 0.07814 0.07855
58108.35 1.20282 0.0797(28) 129910. 0.07814 0.07854
58114.2 1.20295 0.0819(28) 124576. 0.07813 0.07854
58120.0 1.20307 0.0861(29) 116773. 0.07813 0.07854
58125.8 1.20319 0.0783(27) 132588. 0.07813 0.07853
58131.6 1.20331 0.0807(28) 126331. 0.07813 0.07853
58137.4 1.20343 0.0822(29) 122579. 0.07813 0.07853
58143.2 1.20355 0.0770(27) 134986. 0.07813 0.07853
58149.0 1.20367 0.0821(28) 123722. 0.07812 0.07852
58154.85 1.20379 0.0773(27) 135630. 0.07812 0.07852
58160.7 1.20391 0.0799(28) 130369. 0.07812 0.07852
58166.5 1.20403 0.0845(29) 121322. 0.07812 0.07852
58172.3 1.20415 0.0793(28) 130634. 0.07812 0.07852
58178.1 1.20427 0.0738(27) 140059. 0.07811 0.07852
58183.95 1.20439 0.0697(26) 150569. 0.07811 0.07852
58189.8 1.20451 0.0781(28) 131060. 0.07811 0.07852
58195.6 1.20463 0.0783(28) 132165. 0.07811 0.07852
58201.4 1.20475 0.0796(28) 126044. 0.07811 0.07852
58207.2 1.20487 0.0741(27) 140009. 0.07811 0.07852
58213.0 1.20499 0.0811(28) 126168. 0.07810 0.07852
58218.85 1.20511 0.0797(28) 131424. 0.07810 0.07852
58224.7 1.20523 0.0784(28) 131413. 0.07810 0.07852
58230.5 1.20535 0.0754(27) 138974. 0.07810 0.07852
58236.3 1.20547 0.0765(27) 134842. 0.07810 0.07853
58242.15 1.20559 0.0741(26) 143095. 0.07809 0.07853
58248.0 1.20572 0.0790(28) 131478. 0.07809 0.07853
58253.8 1.20584 0.0816(28) 125534. 0.07809 0.07853
58259.6 1.20596 0.0785(28) 130857. 0.07809 0.07853
58265.45 1.20608 0.0743(27) 141614. 0.07809 0.07854
58271.3 1.20620 0.0810(28) 126050. 0.07809 0.07854
58277.1 1.20632 0.0833(28) 123541. 0.07808 0.07855
58282.9 1.20644 0.0782(27) 133539. 0.07808 0.07855
58288.75 1.20656 0.0747(27) 140073. 0.07808 0.07856
58294.6 1.20668 0.0739(27) 140079. 0.07808 0.07857
58300.4 1.20680 0.0804(28) 126883. 0.07808 0.07857
58306.25 1.20692 0.0844(29) 122412. 0.07807 0.07858
58312.1 1.20704 0.0875(29) 115444. 0.07807 0.07859
58317.9 1.20716 0.0813(28) 125811. 0.07807 0.07860
58323.75 1.20728 0.0758(27) 138783. 0.07807 0.07860
58329.6 1.20740 0.0783(28) 131391. 0.07807 0.07861
58335.4 1.20752 0.0797(28) 127074. 0.07806 0.07862
58341.25 1.20765 0.0820(28) 124883. 0.07806 0.07863
58347.1 1.20777 0.0854(29) 117318. 0.07806 0.07865
58352.9 1.20789 0.0860(29) 117139. 0.07806 0.07866
58358.75 1.20801 0.0846(29) 120988. 0.07806 0.07867
58364.6 1.20813 0.0763(27) 135584. 0.07805 0.07869
58370.4 1.20825 0.0739(27) 139454. 0.07805 0.07871
58376.25 1.20837 0.0729(27) 141774. 0.07805 0.07872
58382.1 1.20849 0.0755(27) 137490. 0.07805 0.07874
58387.9 1.20861 0.0813(28) 127273. 0.07805 0.07876
58393.75 1.20873 0.0796(28) 132023. 0.07805 0.07878
58399.6 1.20885 0.0789(27) 133025. 0.07804 0.07881
58405.45 1.20897 0.0793(27) 133802. 0.07804 0.07883
58411.3 1.20910 0.0807(28) 128640. 0.07804 0.07886
58417.15 1.20922 0.0808(28) 128954. 0.07804 0.07889
58423.0 1.20934 0.0820(28) 128193. 0.07804 0.07892
58428.8 1.20946 0.0825(28) 126111. 0.07803 0.07895
58434.65 1.20958 0.0747(26) 143931. 0.07803 0.07898
58440.5 1.20970 0.0798(28) 130792. 0.07803 0.07902
58446.35 1.20982 0.0777(27) 138491. 0.07803 0.07906
58452.2 1.20994 0.0771(27) 135975. 0.07803 0.07911
58458.05 1.21006 0.0769(27) 137422. 0.07802 0.07915
58463.9 1.21018 0.0793(27) 132363. 0.07802 0.07921
58469.7 1.21031 0.0808(28) 129415. 0.07802 0.07926
58475.55 1.21043 0.0783(27) 135178. 0.07802 0.07932
58481.4 1.21055 0.0753(27) 139834. 0.07802 0.07939
58487.25 1.21067 0.0810(28) 128458. 0.07801 0.07946
58493.1 1.21079 0.0777(27) 134724. 0.07801 0.07954
58498.95 1.21091 0.0722(26) 148894. 0.07801 0.07963
58504.8 1.21103 0.0765(27) 137388. 0.07801 0.07973
58510.65 1.21115 0.0824(28) 125333. 0.07801 0.07983
58516.5 1.21127 0.0829(28) 125889. 0.07800 0.07995
58522.35 1.21139 0.0824(28) 130143. 0.07800 0.08009
58528.2 1.21152 0.0839(28) 123393. 0.07800 0.08024
58534.05 1.21164 0.0800(28) 130380. 0.07800 0.08041
58539.95 1.21176 0.0766(27) 137608. 0.07800 0.08062
58545.8 1.21188 0.0798(28) 129614. 0.07799 0.08086
58551.65 1.21200 0.0806(28) 130546. 0.07799 0.08114
58557.5 1.21212 0.0830(28) 124652. 0.07799 0.08148
58563.35 1.21224 0.0794(27) 134982. 0.07799 0.08191
58569.2 1.21236 0.0827(28) 124793. 0.07798 0.08243
58575.05 1.21249 0.0804(28) 132012. 0.07798 0.08308
58580.9 1.21261 0.0824(28) 127374. 0.07798 0.08390
58586.75 1.21273 0.0834(28) 125924. 0.07798 0.08492
58592.65 1.21285 0.0879(29) 116665. 0.07798 0.08618
58598.5 1.21297 0.0861(29) 119623. 0.07797 0.08770
58604.35 1.21309 0.0915(30) 113712. 0.07797 0.08949
58610.2 1.21321 0.0970(31) 105609. 0.07797 0.09155
58616.05 1.21333 0.0951(30) 108827. 0.07797 0.09387
58621.95 1.21346 0.0942(30) 109465. 0.07797 0.09640
58627.8 1.21358 0.1015(32) 99662. 0.07796 0.09898
58633.65 1.21370 0.1037(32) 98296. 0.07796 0.10146
58639.55 1.21382 0.1039(32) 97626. 0.07796 0.10369
58645.4 1.21394 0.1117(34) 88336. 0.07796 0.10547
58651.25 1.21406 0.1050(32) 98000. 0.07796 0.10676
58657.15 1.21419 0.1074(33) 94096. 0.07795 0.10761
58663.0 1.21431 0.1075(33) 93837. 0.07795 0.10814
58668.85 1.21443 0.1108(33) 91829. 0.07795 0.10850
58674.75 1.21455 0.1107(33) 92439. 0.07795 0.10888
58680.6 1.21467 0.1103(33) 91264. 0.07795 0.10939
58686.45 1.21479 0.1077(32) 96250. 0.07794 0.11019
58692.35 1.21491 0.1147(33) 89625. 0.07794 0.11133
58698.2 1.21504 0.1177(34) 85507. 0.07794 0.11284
58704.05 1.21516 0.1170(34) 87334. 0.07794 0.11462
58709.95 1.21528 0.1123(33) 92657. 0.07793 0.11658
58715.8 1.21540 0.1155(34) 87776. 0.07793 0.11847
58721.65 1.21552 0.1150(33) 89540. 0.07793 0.12012
58727.55 1.21564 0.1198(34) 84168. 0.07793 0.12138
58733.45 1.21577 0.1165(34) 88394. 0.07793 0.12208
58739.3 1.21589 0.1211(35) 83806. 0.07792 0.12214
58745.15 1.21601 0.1225(35) 83184. 0.07792 0.12149
58751.05 1.21613 0.1230(35) 83124. 0.07792 0.12014
58756.95 1.21625 0.1143(33) 91643. 0.07792 0.11819
58762.8 1.21637 0.1154(34) 88006. 0.07791 0.11579
58768.65 1.21649 0.1105(33) 94461. 0.07791 0.11308
58774.55 1.21662 0.1104(33) 93395. 0.07791 0.11018
58780.45 1.21674 0.1059(32) 99107. 0.07791 0.10724
58786.3 1.21686 0.1044(32) 98993. 0.07791 0.10438
58792.15 1.21698 0.0972(31) 107233. 0.07790 0.10165
58798.05 1.21710 0.0880(29) 120498. 0.07790 0.09908
58803.95 1.21722 0.0866(28) 123120. 0.07790 0.09672
58809.85 1.21735 0.0930(30) 111537. 0.07790 0.09458
58815.7 1.21747 0.0921(30) 112124. 0.07789 0.09268
58821.55 1.21759 0.0868(29) 121522. 0.07789 0.09099
58827.45 1.21771 0.0824(28) 128400. 0.07789 0.08949
58833.35 1.21783 0.0836(28) 124111. 0.07789 0.08817
58839.25 1.21796 0.0834(28) 124717. 0.07789 0.08701
58845.15 1.21808 0.0789(27) 134284. 0.07788 0.08600
58851.0 1.21820 0.0881(30) 114701. 0.07788 0.08512
58856.85 1.21832 0.0821(28) 128712. 0.07788 0.08435
58862.75 1.21844 0.0786(27) 133713. 0.07788 0.08367
58868.65 1.21856 0.0805(28) 129559. 0.07787 0.08308
58874.55 1.21869 0.0805(28) 130956. 0.07787 0.08256
58880.45 1.21881 0.0820(28) 129117. 0.07787 0.08211
58886.35 1.21893 0.0834(28) 125529. 0.07787 0.08170
58892.2 1.21905 0.0768(27) 135861. 0.07787 0.08135
58898.05 1.21917 0.0762(27) 136266. 0.07786 0.08104
58903.95 1.21930 0.0771(27) 135672. 0.07786 0.08077
58909.85 1.21942 0.0795(28) 130525. 0.07786 0.08052
58915.75 1.21954 0.0794(28) 131259. 0.07786 0.08031
58921.65 1.21966 0.0818(28) 126840. 0.07785 0.08011
58927.55 1.21978 0.0820(28) 125293. 0.07785 0.07994
58933.45 1.21991 0.0822(28) 124499. 0.07785 0.07978
58939.35 1.22003 0.0787(27) 132640. 0.07785 0.07965
58945.25 1.22015 0.0788(28) 129658. 0.07785 0.07952
58951.15 1.22027 0.0749(27) 140694. 0.07784 0.07941
58957.05 1.22039 0.0751(27) 140231. 0.07784 0.07931
58962.95 1.22052 0.0770(27) 136350. 0.07784 0.07921
58968.85 1.22064 0.0842(29) 122550. 0.07784 0.07913
58974.75 1.22076 0.0832(28) 123487. 0.07783 0.07905
58980.65 1.22088 0.0789(28) 131339. 0.07783 0.07898
58986.55 1.22100 0.0726(26) 144257. 0.07783 0.07892
58992.45 1.22113 0.0719(26) 144705. 0.07783 0.07886
58998.35 1.22125 0.0802(28) 127443. 0.07782 0.07880
59004.25 1.22137 0.0817(28) 125866. 0.07782 0.07875
59010.15 1.22149 0.0800(28) 127490. 0.07782 0.07871
59016.05 1.22162 0.0783(28) 130695. 0.07782 0.07866
59021.95 1.22174 0.0814(28) 124561. 0.07781 0.07862
59027.85 1.22186 0.0818(28) 123336. 0.07781 0.07859
59033.75 1.22198 0.0791(28) 128921. 0.07781 0.07855
59039.65 1.22210 0.0772(27) 133487. 0.07781 0.07852
59045.55 1.22223 0.0780(28) 131068. 0.07781 0.07849
59051.45 1.22235 0.0747(27) 137690. 0.07780 0.07846
59057.35 1.22247 0.0754(27) 134579. 0.07780 0.07843
59063.25 1.22259 0.0800(28) 126022. 0.07780 0.07840
59069.15 1.22271 0.0783(28) 129414. 0.07780 0.07838
59075.05 1.22284 0.0794(28) 127814. 0.07779 0.07835
59080.95 1.22296 0.0837(29) 119555. 0.07779 0.07833
59086.85 1.22308 0.0821(29) 121951. 0.07779 0.07831
59092.75 1.22320 0.0851(29) 117619. 0.07779 0.07829
59098.65 1.22333 0.0802(28) 127815. 0.07778 0.07827
59104.55 1.22345 0.0797(28) 128201. 0.07778 0.07825
59110.5 1.22357 0.0809(28) 127120. 0.07778 0.07824
59116.45 1.22369 0.0759(27) 137261. 0.07778 0.07822
59122.35 1.22382 0.0783(28) 131827. 0.07777 0.07828
59128.25 1.22394 0.0804(28) 128541. 0.07777 0.07826
59134.15 1.22406 0.0803(28) 129249. 0.07777 0.07825
59140.05 1.22418 0.0794(28) 129791. 0.07777 0.07823
59145.95 1.22430 0.0765(27) 137849. 0.07776 0.07822
59151.85 1.22443 0.0803(28) 128243. 0.07776 0.07821
59157.8 1.22455 0.0729(26) 147898. 0.07776 0.07820
59163.75 1.22467 0.0815(28) 125684. 0.07776 0.07819
59169.65 1.22480 0.0744(26) 143710. 0.07776 0.07817
59175.55 1.22492 0.0768(27) 136278. 0.07775 0.07820
59181.45 1.22504 0.0755(27) 140456. 0.07775 0.07819
59187.35 1.22516 0.0762(27) 139032. 0.07775 0.07818
59193.3 1.22529 0.0777(27) 139369. 0.07775 0.07817
59199.25 1.22541 0.0838(28) 123773. 0.07774 0.07816
59205.15 1.22553 0.0796(28) 131699. 0.07774 0.07815
59211.05 1.22565 0.0792(28) 131392. 0.07774 0.07815
59216.95 1.22577 0.0786(27) 133313. 0.07774 0.07814
59222.9 1.22590 0.0757(26) 142830. 0.07773 0.07813
59228.85 1.22602 0.0780(27) 134818. 0.07773 0.07812
59234.75 1.22614 0.0787(27) 132977. 0.07773 0.07812
59240.65 1.22627 0.0762(27) 139191. 0.07773 0.07811
59246.6 1.22639 0.0776(27) 136423. 0.07772 0.07810
59252.55 1.22651 0.0811(28) 128512. 0.07772 0.07810
59258.45 1.22663 0.0850(29) 121870. 0.07772 0.07809
59264.35 1.22676 0.0819(28) 126884. 0.07772 0.07808
59270.3 1.22688 0.0805(28) 129317. 0.07771 0.07808
59276.25 1.22700 0.0797(28) 130760. 0.07771 0.07807
59282.15 1.22712 0.0789(28) 131343. 0.07771 0.07807
59288.1 1.22725 0.0784(28) 131544. 0.07771 0.07806
59294.05 1.22737 0.0856(29) 117217. 0.07770 0.07806
59299.95 1.22749 0.0853(29) 119183. 0.07770 0.07805
59305.85 1.22762 0.0859(29) 117830. 0.07770 0.07805
59311.8 1.22774 0.0834(29) 121262. 0.07770 0.07804
59317.75 1.22786 0.0822(29) 119503. 0.07769 0.07804
59323.65 1.22798 0.0834(29) 118350. 0.07769 0.07803
59329.6 1.22811 0.0831(29) 122132. 0.07769 0.07803
59335.55 1.22823 0.0893(30) 109760. 0.07769 0.07803
59341.45 1.22835 0.0922(31) 104617. 0.07768 0.07802
59347.4 1.22848 0.0892(30) 109663. 0.07768 0.07802
59353.35 1.22860 0.0839(29) 115455. 0.07768 0.07801
59359.25 1.22872 0.0852(30) 112734. 0.07768 0.07801
59365.2 1.22884 0.0915(31) 104582. 0.07767 0.07801
59371.15 1.22897 0.0911(31) 103665. 0.07767 0.07800
59377.1 1.22909 0.0916(31) 103362. 0.07767 0.07800
59383.05 1.22921 0.0896(31) 106122. 0.07766 0.07800
59388.95 1.22934 0.0918(31) 102176. 0.07766 0.07800
59394.9 1.22946 0.0921(31) 102006. 0.07766 0.07799
59400.85 1.22958 0.0885(31) 104583. 0.07766 0.07799
59406.75 1.22970 0.0858(30) 108754. 0.07765 0.07799
59412.7 1.22983 0.0848(30) 112325. 0.07765 0.07799
59418.65 1.22995 0.0912(32) 100418. 0.07765 0.07798
59424.6 1.23007 0.0878(30) 109046. 0.07765 0.07798
59430.55 1.23020 0.0921(31) 101119. 0.07764 0.07798
59436.5 1.23032 0.0833(29) 115118. 0.07764 0.07798
59442.45 1.23044 0.0868(31) 107101. 0.07764 0.07798
59448.35 1.23057 0.0921(32) 100514. 0.07764 0.07797
59454.3 1.23069 0.0902(31) 105379. 0.07763 0.07797
59460.25 1.23081 0.0892(31) 105663. 0.07763 0.07797
59466.2 1.23093 0.0881(31) 107084. 0.07763 0.07797
59472.15 1.23106 0.0860(30) 109770. 0.07763 0.07797
59478.1 1.23118 0.0878(30) 109235. 0.07762 0.07797
59484.05 1.23130 0.0886(31) 105891. 0.07762 0.07797
59490.0 1.23143 0.0871(30) 110287. 0.07762 0.07797
59495.95 1.23155 0.0898(31) 105975. 0.07762 0.07797
59501.9 1.23167 0.0874(30) 109212. 0.07761 0.07797
59507.85 1.23180 0.0856(30) 109519. 0.07761 0.07797
59513.8 1.23192 0.0882(31) 107384. 0.07761 0.07797
59519.75 1.23204 0.0893(31) 105788. 0.07761 0.07797
59525.7 1.23217 0.0840(29) 115902. 0.07760 0.07797
59531.65 1.23229 0.0879(30) 108682. 0.07760 0.07797
59537.6 1.23241 0.0865(30) 110637. 0.07760 0.07797
59543.55 1.23254 0.0839(30) 114138. 0.07759 0.07798
59549.5 1.23266 0.0832(29) 117445. 0.07759 0.07798
59555.45 1.23278 0.0891(31) 105699. 0.07759 0.07798
59561.4 1.23291 0.0842(29) 117335. 0.07759 0.07798
59567.4 1.23303 0.0818(29) 120674. 0.07758 0.07798
59573.35 1.23315 0.0852(30) 112180. 0.07758 0.07798
59579.3 1.23328 0.0825(29) 120061. 0.07758 0.07800
59585.25 1.23340 0.0891(31) 107034. 0.07758 0.07800
59591.2 1.23352 0.0864(30) 112393. 0.07757 0.07800
59597.2 1.23365 0.0834(29) 118936. 0.07757 0.07800
59603.15 1.23377 0.0881(30) 109556. 0.07757 0.07800
59609.1 1.23389 0.0812(29) 122604. 0.07756 0.07801
59615.05 1.23402 0.0831(29) 115477. 0.07756 0.07801
59621.0 1.23414 0.0809(29) 120918. 0.07756 0.07801
59627.0 1.23426 0.0789(28) 126587. 0.07756 0.07802
59632.95 1.23439 0.0827(29) 118941. 0.07755 0.07802
59638.9 1.23451 0.0822(29) 119171. 0.07755 0.07802
59644.85 1.23463 0.0792(28) 123968. 0.07755 0.07803
59650.8 1.23476 0.0823(29) 119742. 0.07755 0.07803
59656.8 1.23488 0.0814(29) 122014. 0.07754 0.07804
59662.75 1.23500 0.0818(29) 118611. 0.07754 0.07804
59668.7 1.23513 0.0779(28) 129144. 0.07754 0.07804
59674.7 1.23525 0.0804(28) 123924. 0.07754 0.07805
59680.65 1.23537 0.0814(29) 119659. 0.07753 0.07806
59686.6 1.23550 0.0805(28) 124573. 0.07753 0.07806
59692.6 1.23562 0.0829(29) 120411. 0.07753 0.07807
59698.6 1.23575 0.0769(27) 132886. 0.07752 0.07807
59704.55 1.23587 0.0862(30) 110964. 0.07752 0.07808
59710.5 1.23599 0.0834(29) 118893. 0.07752 0.07809
59716.5 1.23612 0.0813(28) 124192. 0.07752 0.07810
59722.45 1.23624 0.0815(29) 121812. 0.07751 0.07810
59728.4 1.23636 0.0796(28) 127568. 0.07751 0.07811
59734.4 1.23649 0.0843(29) 118530. 0.07751 0.07810
59740.4 1.23661 0.0837(29) 118302. 0.07750 0.07811
59746.35 1.23673 0.0800(28) 123694. 0.07750 0.07812
59752.3 1.23686 0.0805(28) 125520. 0.07750 0.07813
59758.3 1.23698 0.0793(28) 129784. 0.07750 0.07814
59764.3 1.23711 0.0822(29) 122888. 0.07749 0.07815
59770.25 1.23723 0.0836(29) 119889. 0.07749 0.07816
59776.2 1.23735 0.0803(28) 128141. 0.07749 0.07818
59782.2 1.23748 0.0768(27) 136171. 0.07749 0.07819
59788.2 1.23760 0.0804(28) 129184. 0.07748 0.07820
59794.15 1.23772 0.0813(28) 125172. 0.07748 0.07822
59800.1 1.23785 0.0739(26) 143131. 0.07748 0.07823
59806.1 1.23797 0.0788(28) 130733. 0.07747 0.07825
59812.1 1.23810 0.0768(27) 136265. 0.07747 0.07825
59818.1 1.23822 0.0818(28) 126769. 0.07747 0.07827
59824.1 1.23834 0.0852(29) 120066. 0.07747 0.07829
59830.05 1.23847 0.0820(28) 125944. 0.07746 0.07831
59836.0 1.23859 0.0791(27) 134442. 0.07746 0.07831
59842.0 1.23871 0.0755(27) 141165. 0.07746 0.07833
59848.0 1.23884 0.0758(27) 140526. 0.07745 0.07836
59854.0 1.23896 0.0796(27) 133851. 0.07745 0.07838
59860.0 1.23909 0.0827(28) 127999. 0.07745 0.07841
59865.95 1.23921 0.0788(27) 133826. 0.07745 0.07843
59871.9 1.23933 0.0794(27) 132756. 0.07744 0.07846
59877.9 1.23946 0.0775(27) 138335. 0.07744 0.07849
59883.9 1.23958 0.0775(27) 138025. 0.07744 0.07852
59889.9 1.23971 0.0788(27) 135696. 0.07743 0.07856
59895.9 1.23983 0.0779(27) 138673. 0.07743 0.07859
59901.9 1.23995 0.0797(27) 135690. 0.07743 0.07863
59907.9 1.24008 0.0819(28) 130333. 0.07743 0.07867
59913.85 1.24020 0.0812(28) 131641. 0.07742 0.07871
59919.85 1.24033 0.0823(27) 132309. 0.07742 0.07876
59925.85 1.24045 0.0827(28) 128357. 0.07742 0.07881
59931.8 1.24057 0.0833(28) 127417. 0.07741 0.07886
59937.8 1.24070 0.0805(27) 134814. 0.07741 0.07891
59943.8 1.24082 0.0826(28) 130154. 0.07741 0.07897
59949.8 1.24095 0.0880(29) 119867. 0.07741 0.07903
59955.8 1.24107 0.0875(29) 121425. 0.07740 0.07909
59961.8 1.24119 0.0814(27) 132923. 0.07740 0.07916
59967.8 1.24132 0.0781(27) 140231. 0.07740 0.07924
59973.8 1.24144 0.0780(27) 140378. 0.07739 0.07932
59979.8 1.24157 0.0844(28) 126669. 0.07739 0.07940
59985.8 1.24169 0.0810(27) 135495. 0.07739 0.07949
59991.8 1.24182 0.0826(28) 128417. 0.07739 0.07959
59997.8 1.24194 0.0790(27) 135940. 0.07738 0.07970
60003.8 1.24206 0.0773(26) 142581. 0.07738 0.07981
60009.8 1.24219 0.0825(28) 128236. 0.07738 0.07994
60015.8 1.24231 0.0775(27) 139347. 0.07737 0.08007
60021.8 1.24244 0.0858(28) 124142. 0.07737 0.08022
60027.8 1.24256 0.0870(28) 125249. 0.07737 0.08037
60033.8 1.24269 0.0823(27) 133053. 0.07737 0.08055
60039.8 1.24281 0.0817(28) 132142. 0.07736 0.08074
60045.8 1.24293 0.0846(28) 127454. 0.07736 0.08095
60051.8 1.24306 0.0862(28) 124583. 0.07736 0.08117
60057.8 1.24318 0.0863(28) 125228. 0.07735 0.08143
60063.8 1.24331 0.0848(28) 128792. 0.07735 0.08170
60069.8 1.24343 0.0844(28) 128620. 0.07735 0.08201
60075.8 1.24355 0.0857(28) 125280. 0.07734 0.08236
60081.85 1.24368 0.0851(28) 127671. 0.07734 0.08275
60087.9 1.24381 0.0858(28) 126709. 0.07734 0.08320
60093.9 1.24393 0.0867(29) 122737. 0.07734 0.08371
60099.9 1.24405 0.0840(28) 128747. 0.07733 0.08430
60105.9 1.24418 0.0876(29) 122936. 0.07733 0.08500
60111.9 1.24430 0.0891(29) 119561. 0.07733 0.08585
60117.9 1.24443 0.0864(28) 123648. 0.07732 0.08687
60123.9 1.24455 0.0871(29) 122732. 0.07732 0.08815
60129.9 1.24467 0.0893(29) 120476. 0.07732 0.08974
60135.9 1.24480 0.0953(30) 110035. 0.07731 0.09176
60141.95 1.24492 0.0917(29) 118102. 0.07731 0.09433
60148.0 1.24505 0.0984(31) 106106. 0.07731 0.09755
60154.0 1.24517 0.1038(32) 100065. 0.07731 0.10153
60160.0 1.24530 0.1088(32) 96016. 0.07730 0.10639
60166.0 1.24542 0.1113(33) 93449. 0.07730 0.11223
60172.0 1.24555 0.1162(34) 88796. 0.07730 0.11909
60178.05 1.24567 0.1232(34) 84712. 0.07729 0.12699
60184.1 1.24580 0.134(4) 76457. 0.0773 0.1357
60190.1 1.24592 0.145(4) 69953. 0.0773 0.1449
60196.1 1.24605 0.153(4) 65706. 0.0773 0.1539
60202.1 1.24617 0.163(4) 61051. 0.0773 0.1623
60208.15 1.24629 0.168(4) 60655. 0.0773 0.1694
60214.2 1.24642 0.177(4) 56896. 0.0773 0.1747
60220.2 1.24654 0.184(4) 53702. 0.0773 0.1781
60226.2 1.24667 0.182(4) 54980. 0.0773 0.1798
60232.2 1.24679 0.189(4) 51908. 0.0773 0.1801
60238.25 1.24692 0.183(4) 55146. 0.0773 0.1794
60244.3 1.24704 0.186(4) 53201. 0.0773 0.1779
60250.3 1.24717 0.186(4) 52552. 0.0773 0.1758
60256.3 1.24729 0.181(4) 54200. 0.0773 0.1730
60262.35 1.24742 0.170(4) 60116. 0.0773 0.1695
60268.4 1.24754 0.168(4) 59917. 0.0772 0.1652
60274.4 1.24767 0.162(4) 61901. 0.0772 0.1602
60280.4 1.24779 0.159(4) 63568. 0.0772 0.1546
60286.45 1.24792 0.147(4) 71449. 0.0772 0.1486
60292.5 1.24804 0.144(4) 70763. 0.0772 0.1425
60298.5 1.24817 0.129(4) 80646. 0.0772 0.1365
60304.55 1.24829 0.1242(34) 86186. 0.07723 0.13066
60310.6 1.24842 0.1239(34) 84281. 0.07723 0.12510
60316.6 1.24854 0.1176(33) 89137. 0.07722 0.11996
60322.65 1.24867 0.1112(32) 97335. 0.07722 0.11521
60328.7 1.24879 0.1066(32) 100651. 0.07722 0.11091
60334.7 1.24891 0.1053(31) 101412. 0.07721 0.10709
60340.75 1.24904 0.1002(30) 109126. 0.07721 0.10367
60346.8 1.24917 0.1005(31) 105666. 0.07721 0.10065
60352.8 1.24929 0.0912(29) 120722. 0.07721 0.09802
60358.85 1.24941 0.0887(28) 123124. 0.07720 0.09571
60364.9 1.24954 0.0886(29) 121612. 0.07720 0.09369
60370.9 1.24966 0.0853(28) 128765. 0.07720 0.09194
60376.95 1.24979 0.0863(28) 128398. 0.07719 0.09040
60383.0 1.24991 0.0847(28) 130449. 0.07719 0.08906
60389.05 1.25004 0.0852(28) 128794. 0.07719 0.08790
60395.1 1.25017 0.0865(28) 124375. 0.07718 0.08688
60401.1 1.25029 0.0871(28) 123775. 0.07718 0.08599
60407.15 1.25041 0.0835(27) 133018. 0.07718 0.08522
60413.2 1.25054 0.0813(27) 133380. 0.07717 0.08453
60419.25 1.25067 0.0772(27) 141698. 0.07717 0.08394
60425.3 1.25079 0.0734(26) 149911. 0.07717 0.08341
60431.3 1.25091 0.0796(27) 134638. 0.07717 0.08296
60437.35 1.25104 0.0803(27) 136722. 0.07716 0.08255
60443.4 1.25117 0.0856(28) 124260. 0.07716 0.08220
60449.45 1.25129 0.0794(27) 138460. 0.07716 0.08189
60455.5 1.25142 0.0823(28) 128508. 0.07715 0.08162
60461.55 1.25154 0.0813(28) 130952. 0.07715 0.08138
60467.6 1.25167 0.0802(28) 131476. 0.07715 0.08117
60473.65 1.25179 0.0753(26) 144454. 0.07714 0.08099
60479.7 1.25192 0.0813(28) 128530. 0.07714 0.08084
60485.7 1.25204 0.0818(28) 129725. 0.07714 0.08071
60491.75 1.25217 0.0825(28) 131080. 0.07713 0.08060
60497.8 1.25229 0.0823(28) 129300. 0.07713 0.08052
60503.85 1.25242 0.0779(27) 140221. 0.07713 0.08045
60509.9 1.25254 0.0846(28) 126272. 0.07712 0.08041
60515.95 1.25267 0.0856(28) 125586. 0.07712 0.08039
60522.05 1.25279 0.0782(27) 140750. 0.07712 0.08039
60528.1 1.25292 0.0811(27) 132324. 0.07711 0.08042
60534.15 1.25304 0.0764(26) 143943. 0.07711 0.08049
60540.2 1.25317 0.0798(27) 133001. 0.07711 0.08059
60546.25 1.25329 0.0888(29) 120137. 0.07711 0.08074
60552.3 1.25342 0.0875(29) 120929. 0.07710 0.08095
60558.35 1.25354 0.0874(29) 120652. 0.07710 0.08124
60564.4 1.25367 0.0895(29) 119005. 0.07710 0.08161
60570.45 1.25380 0.0928(30) 113228. 0.07709 0.08209
60576.5 1.25392 0.0911(29) 115910. 0.07709 0.08270
60582.55 1.25405 0.0931(30) 113698. 0.07709 0.08344
60588.65 1.25417 0.0968(30) 108084. 0.07708 0.08435
60594.7 1.25430 0.0936(30) 112836. 0.07708 0.08542
60600.75 1.25442 0.0968(30) 108074. 0.07708 0.08665
60606.8 1.25455 0.1037(32) 99366. 0.07707 0.08804
60612.85 1.25467 0.1019(31) 104030. 0.07707 0.08954
60618.95 1.25480 0.0997(31) 106004. 0.07707 0.09110
60625.0 1.25492 0.1057(32) 97546. 0.07706 0.09264
60631.05 1.25505 0.1027(31) 103664. 0.07706 0.09412
60637.15 1.25518 0.1007(31) 104694. 0.07706 0.09550
60643.2 1.25530 0.1067(32) 95992. 0.07705 0.09674
60649.25 1.25543 0.1052(32) 100052. 0.07705 0.09784
60655.3 1.25555 0.1065(32) 97778. 0.07705 0.09874
60661.35 1.25568 0.1033(31) 101425. 0.07704 0.09936
60667.45 1.25580 0.0973(30) 108626. 0.07704 0.09962
60673.5 1.25593 0.0983(31) 106806. 0.07704 0.09948
60679.55 1.25605 0.0984(30) 107556. 0.07703 0.09892
60685.65 1.25618 0.0915(29) 117220. 0.07703 0.09801
60691.75 1.25631 0.0878(28) 123315. 0.07703 0.09682
60697.8 1.25643 0.0900(29) 117055. 0.07702 0.09546
60703.85 1.25656 0.0855(28) 126676. 0.07702 0.09399
60709.95 1.25668 0.0891(29) 120485. 0.07702 0.09247
60716.0 1.25681 0.0887(29) 119854. 0.07701 0.09102
60722.05 1.25693 0.0849(28) 127118. 0.07701 0.08960
60728.15 1.25706 0.0810(27) 135964. 0.07701 0.08825
60734.25 1.25719 0.0864(28) 124923. 0.07701 0.08701
60740.3 1.25731 0.0881(29) 119779. 0.07700 0.08590
60746.35 1.25744 0.0872(29) 121829. 0.07700 0.08491
60752.45 1.25756 0.0819(27) 133303. 0.07700 0.08402
60758.55 1.25769 0.0864(29) 123001. 0.07699 0.08323
60764.6 1.25781 0.0846(28) 126216. 0.07699 0.08257
60770.65 1.25794 0.0859(28) 123587. 0.07699 0.08197
60776.75 1.25807 0.0775(27) 141129. 0.07698 0.08145
60782.85 1.25819 0.0782(27) 141658. 0.07698 0.08099
60788.9 1.25832 0.0854(28) 125146. 0.07698 0.08059
60794.95 1.25844 0.0812(27) 134468. 0.07697 0.08024
60801.05 1.25857 0.0800(27) 137128. 0.07697 0.07994
60807.15 1.25870 0.0761(26) 144914. 0.07697 0.07967
60813.25 1.25882 0.0807(27) 134496. 0.07696 0.07943
60819.3 1.25895 0.0846(28) 125254. 0.07696 0.07923
60825.35 1.25907 0.0787(27) 139080. 0.07696 0.07913
60831.45 1.25920 0.0787(27) 137781. 0.07695 0.07900
60837.55 1.25932 0.0771(27) 140854. 0.07695 0.07885
60843.65 1.25945 0.0761(26) 144521. 0.07695 0.07873
60849.75 1.25958 0.0798(27) 136506. 0.07694 0.07862
60855.8 1.25970 0.0807(27) 133685. 0.07694 0.07852
60861.85 1.25983 0.0773(26) 144218. 0.07694 0.07843
60867.95 1.25995 0.0843(28) 129679. 0.07693 0.07835
60874.05 1.26008 0.0805(27) 138062. 0.07693 0.07828
60880.15 1.26021 0.0844(28) 126253. 0.07693 0.07821
60886.25 1.26033 0.0772(26) 142742. 0.07692 0.07815
60892.35 1.26046 0.0798(27) 134060. 0.07692 0.07810
60898.4 1.26058 0.0812(28) 130157. 0.07692 0.07805
60904.45 1.26071 0.0822(28) 128746. 0.07691 0.07800
60910.55 1.26084 0.0813(28) 130077. 0.07691 0.07796
60916.65 1.26096 0.0779(27) 137799. 0.07691 0.07792
60922.75 1.26109 0.0819(28) 128668. 0.07690 0.07789
60928.85 1.26121 0.0813(27) 132239. 0.07690 0.07786
60934.95 1.26134 0.0789(27) 138513. 0.07690 0.07783
60941.05 1.26147 0.0803(27) 134263. 0.07689 0.07780
60947.15 1.26159 0.0766(27) 141222. 0.07689 0.07777
60953.25 1.26172 0.0720(26) 151935. 0.07689 0.07775
60959.35 1.26185 0.0749(26) 143959. 0.07688 0.07773
60965.45 1.26197 0.0789(27) 134976. 0.07688 0.07771
60971.55 1.26210 0.0772(27) 141006. 0.07688 0.07769
60977.65 1.26223 0.0768(27) 140855. 0.07687 0.07767
60983.75 1.26235 0.0730(26) 149790. 0.07687 0.07765
60989.85 1.26248 0.0751(26) 145479. 0.07687 0.07763
60995.95 1.26260 0.0772(27) 141207. 0.07686 0.07762
61002.05 1.26273 0.0779(27) 140218. 0.07686 0.07760
61008.15 1.26286 0.0765(26) 142470. 0.07686 0.07759
61014.25 1.26298 0.0723(25) 153899. 0.07685 0.07758
61020.35 1.26311 0.0782(27) 138352. 0.07685 0.07756
61026.45 1.26324 0.0759(26) 143857. 0.07684 0.07755
61032.55 1.26336 0.0745(26) 145855. 0.07684 0.07754
61038.65 1.26349 0.0745(26) 146399. 0.07684 0.07753
61044.75 1.26361 0.0765(27) 142230. 0.07683 0.07752
61050.85 1.26374 0.0738(26) 149812. 0.07683 0.07751
61056.95 1.26387 0.0761(26) 143087. 0.07683 0.07750
61063.05 1.26399 0.0789(27) 136426. 0.07682 0.07749
61069.15 1.26412 0.0790(27) 135583. 0.07682 0.07749
61075.25 1.26425 0.0777(27) 140317. 0.07682 0.07748
61081.35 1.26437 0.0765(27) 142260. 0.07681 0.07747
61087.45 1.26450 0.0717(26) 153451. 0.07681 0.07747
61093.55 1.26462 0.0744(26) 145980. 0.07681 0.07746
61099.7 1.26475 0.0761(26) 142911. 0.07680 0.07745
61105.85 1.26488 0.0759(27) 142265. 0.07680 0.07745
61111.95 1.26501 0.0780(27) 137312. 0.07680 0.07744
61118.05 1.26513 0.0799(27) 132901. 0.07679 0.07744
61124.15 1.26526 0.0773(27) 140205. 0.07679 0.07743
61130.25 1.26538 0.0796(27) 135732. 0.07679 0.07743
61136.35 1.26551 0.0777(27) 137430. 0.07678 0.07742
61142.45 1.26564 0.0725(26) 149828. 0.07678 0.07742
61148.55 1.26576 0.0782(27) 136277. 0.07678 0.07742
61154.7 1.26589 0.0755(26) 147536. 0.07677 0.07742
61160.85 1.26602 0.0786(27) 137610. 0.07677 0.07741
61166.95 1.26614 0.0735(26) 147758. 0.07677 0.07741
61173.05 1.26627 0.0748(26) 144430. 0.07676 0.07741
61179.15 1.26640 0.0779(27) 137901. 0.07676 0.07741
61185.25 1.26652 0.0759(27) 142327. 0.07676 0.07741
61191.4 1.26665 0.0725(26) 150697. 0.07675 0.07740
61197.55 1.26678 0.0732(26) 147197. 0.07675 0.07740
61203.65 1.26690 0.0736(26) 146613. 0.07675 0.07740
61209.75 1.26703 0.0777(27) 135273. 0.07674 0.07740
61215.9 1.26716 0.0774(27) 141349. 0.07674 0.07740
61222.05 1.26728 0.0808(27) 134144. 0.07673 0.07740
61228.15 1.26741 0.0852(28) 124771. 0.07673 0.07740
61234.25 1.26754 0.0820(28) 130984. 0.07673 0.07741
61240.35 1.26766 0.0789(27) 135217. 0.07672 0.07741
61246.5 1.26779 0.0779(27) 138924. 0.07672 0.07741
61252.65 1.26792 0.0797(27) 134250. 0.07672 0.07741
61258.75 1.26804 0.0776(27) 138631. 0.07671 0.07741
61264.85 1.26817 0.0786(27) 137689. 0.07671 0.07742
61271.0 1.26830 0.0820(28) 131104. 0.07671 0.07742
61277.15 1.26843 0.0835(28) 126520. 0.07670 0.07742
61283.25 1.26855 0.0781(27) 137681. 0.07670 0.07743
61289.35 1.26868 0.0736(26) 145570. 0.07670 0.07743
61295.5 1.26881 0.0783(27) 136151. 0.07669 0.07744
61301.65 1.26893 0.0808(28) 130079. 0.07669 0.07736
61307.75 1.26906 0.0758(27) 141175. 0.07669 0.07737
61313.9 1.26919 0.0746(26) 146342. 0.07668 0.07737
61320.05 1.26931 0.0779(27) 137838. 0.07668 0.07738
61326.15 1.26944 0.0774(27) 140682. 0.07668 0.07739
61332.3 1.26957 0.0777(27) 140580. 0.07667 0.07740
61338.45 1.26969 0.0771(27) 139687. 0.07667 0.07741
61344.55 1.26982 0.0771(27) 141078. 0.07666 0.07742
61350.7 1.26995 0.0761(26) 145194. 0.07666 0.07743
61356.85 1.27008 0.0768(26) 142482. 0.07666 0.07740
61362.95 1.27020 0.0778(27) 137850. 0.07665 0.07741
61369.1 1.27033 0.0699(25) 161191. 0.07665 0.07742
61375.25 1.27046 0.0754(26) 145021. 0.07665 0.07744
61381.35 1.27058 0.0781(27) 139108. 0.07664 0.07745
61387.5 1.27071 0.0746(26) 148844. 0.07664 0.07746
61393.65 1.27084 0.0751(26) 145291. 0.07664 0.07748
61399.8 1.27096 0.0740(26) 149669. 0.07663 0.07749
61405.95 1.27109 0.0761(26) 144636. 0.07663 0.07751
61412.1 1.27122 0.0789(27) 139609. 0.07663 0.07753
61418.25 1.27135 0.0802(27) 134524. 0.07662 0.07754
61424.35 1.27147 0.0755(26) 146296. 0.07662 0.07756
61430.5 1.27160 0.0753(26) 146586. 0.07662 0.07758
61436.65 1.27173 0.0798(27) 134473. 0.07661 0.07760
61442.8 1.27185 0.0730(25) 154329. 0.07661 0.07763
61448.95 1.27198 0.0756(26) 143696. 0.07660 0.07765
61455.1 1.27211 0.0751(26) 145835. 0.07660 0.07767
61461.25 1.27224 0.0760(26) 144516. 0.07660 0.07770
61467.35 1.27236 0.0772(27) 141758. 0.07659 0.07773
61473.5 1.27249 0.0772(27) 141272. 0.07659 0.07776
61479.65 1.27262 0.0754(26) 144230. 0.07659 0.07779
61485.8 1.27275 0.0744(26) 150054. 0.07658 0.07782
61491.95 1.27287 0.0752(26) 143974. 0.07658 0.07785
61498.1 1.27300 0.0755(26) 143286. 0.07658 0.07789
61504.25 1.27313 0.0737(26) 148021. 0.07657 0.07792
61510.4 1.27325 0.0728(26) 150666. 0.07657 0.07796
61516.55 1.27338 0.0755(26) 143895. 0.07656 0.07801
61522.7 1.27351 0.0777(26) 142527. 0.07656 0.07805
61528.85 1.27364 0.0806(27) 134786. 0.07656 0.07810
61535.0 1.27376 0.0758(26) 148064. 0.07655 0.07815
61541.2 1.27389 0.0738(26) 151617. 0.07655 0.07820
61547.35 1.27402 0.0728(26) 152166. 0.07655 0.07826
61553.5 1.27415 0.0766(26) 144035. 0.07654 0.07832
61559.65 1.27427 0.0776(27) 140603. 0.07654 0.07838
61565.8 1.27440 0.0758(26) 146532. 0.07654 0.07845
61571.95 1.27453 0.0791(27) 137359. 0.07653 0.07852
61578.1 1.27466 0.0782(27) 140618. 0.07653 0.07860
61584.25 1.27478 0.0768(26) 142406. 0.07653 0.07868
61590.4 1.27491 0.0790(27) 138815. 0.07652 0.07877
61596.6 1.27504 0.0785(27) 140153. 0.07652 0.07886
61602.75 1.27517 0.0793(27) 135967. 0.07651 0.07896
61608.9 1.27529 0.0741(26) 149185. 0.07651 0.07907
61615.05 1.27542 0.0741(26) 146455. 0.07651 0.07919
61621.2 1.27555 0.0771(27) 141538. 0.07650 0.07932
61627.4 1.27568 0.0804(27) 134929. 0.07650 0.07945
61633.55 1.27580 0.0810(28) 131288. 0.07650 0.07960
61639.7 1.27593 0.0791(27) 135365. 0.07649 0.07976
61645.9 1.27606 0.0801(28) 131328. 0.07649 0.07994
61652.05 1.27619 0.0821(28) 128231. 0.07649 0.08013
61658.2 1.27631 0.0832(28) 127750. 0.07648 0.08035
61664.4 1.27644 0.0781(27) 138413. 0.07648 0.08058
61670.55 1.27657 0.0823(28) 126910. 0.07647 0.08084
61676.7 1.27670 0.0797(27) 134692. 0.07647 0.08112
61682.9 1.27683 0.0835(28) 127955. 0.07647 0.08145
61689.05 1.27695 0.0849(28) 123843. 0.07646 0.08181
61695.2 1.27708 0.0860(29) 121285. 0.07646 0.08223
61701.4 1.27721 0.0844(28) 125270. 0.07646 0.08271
61707.55 1.27734 0.0892(29) 115380. 0.07645 0.08329
61713.7 1.27746 0.0832(28) 128544. 0.07645 0.08397
61719.9 1.27759 0.0869(29) 121934. 0.07645 0.08480
61726.1 1.27772 0.0888(29) 119554. 0.07644 0.08584
61732.25 1.27785 0.0909(29) 116575. 0.07644 0.08710
61738.4 1.27797 0.0931(30) 114171. 0.07643 0.08867
61744.6 1.27810 0.0929(30) 112817. 0.07643 0.09061
61750.75 1.27823 0.0949(30) 109723. 0.07643 0.09296
61756.9 1.27836 0.0983(31) 107432. 0.07642 0.09579
61763.1 1.27849 0.1036(31) 101805. 0.07642 0.09915
61769.3 1.27861 0.1063(32) 100156. 0.07642 0.10304
61775.5 1.27874 0.1129(33) 93560. 0.07641 0.10743
61781.65 1.27887 0.1205(34) 84946. 0.07641 0.11217
61787.8 1.27900 0.1185(34) 88284. 0.07640 0.11708
61794.0 1.27913 0.1246(34) 84269. 0.07640 0.12195
61800.2 1.27925 0.131(4) 78485. 0.0764 0.1264
61806.4 1.27938 0.131(4) 79440. 0.0764 0.1302
61812.55 1.27951 0.143(4) 70226. 0.0764 0.1332
61818.7 1.27964 0.139(4) 74994. 0.0764 0.1356
61824.9 1.27977 0.138(4) 74783. 0.0764 0.1374
61831.1 1.27989 0.141(4) 73534. 0.0764 0.1390
61837.3 1.28002 0.149(4) 68239. 0.0764 0.1406
61843.45 1.28015 0.155(4) 64749. 0.0764 0.1424
61849.6 1.28028 0.154(4) 66690. 0.0764 0.1446
61855.8 1.28040 0.163(4) 61670. 0.0764 0.1474
61862.0 1.28053 0.166(4) 61057. 0.0764 0.1508
61868.2 1.28066 0.169(4) 59328. 0.0764 0.1552
61874.4 1.28079 0.169(4) 58828. 0.0764 0.1607
61880.6 1.28092 0.176(4) 56212. 0.0763 0.1673
61886.8 1.28105 0.175(4) 57235. 0.0763 0.1749
61892.95 1.28117 0.190(4) 50392. 0.0763 0.1833
61899.1 1.28130 0.190(4) 50978. 0.0763 0.1918
61905.3 1.28143 0.196(4) 49561. 0.0763 0.1996
61911.5 1.28156 0.204(5) 47153. 0.0763 0.2057
61917.7 1.28169 0.204(5) 47206. 0.0763 0.2094
61923.9 1.28181 0.212(5) 44915. 0.0763 0.2101
61930.1 1.28194 0.205(5) 47170. 0.0763 0.2078
61936.3 1.28207 0.203(5) 47414. 0.0763 0.2031
61942.5 1.28220 0.198(5) 49077. 0.0763 0.1963
61948.7 1.28233 0.190(4) 51191. 0.0763 0.1881
61954.9 1.28246 0.179(4) 54142. 0.0763 0.1791
61961.1 1.28258 0.170(4) 57571. 0.0763 0.1698
61967.3 1.28271 0.154(4) 65081. 0.0763 0.1605
61973.5 1.28284 0.142(4) 70942. 0.0763 0.1515
61979.7 1.28297 0.136(4) 74374. 0.0763 0.1431
61985.85 1.28310 0.137(4) 72358. 0.0763 0.1355
61992.0 1.28322 0.1245(35) 81823. 0.07628 0.12852
61998.2 1.28335 0.1208(35) 83688. 0.07628 0.12228
62004.45 1.28348 0.1085(32) 98027. 0.07627 0.11673
62010.65 1.28361 0.1156(34) 87415. 0.07627 0.11189
62016.85 1.28374 0.1064(32) 100198. 0.07627 0.10767
62023.1 1.28387 0.1015(31) 103577. 0.07626 0.10396
62029.3 1.28400 0.0979(31) 107144. 0.07626 0.10077
62035.5 1.28413 0.1000(31) 104227. 0.07626 0.09800
62041.7 1.28425 0.0914(29) 117044. 0.07625 0.09559
62047.9 1.28438 0.0901(29) 117671. 0.07625 0.09349
62054.1 1.28451 0.0921(29) 114965. 0.07624 0.09167
62060.3 1.28464 0.0881(29) 120594. 0.07624 0.09008
62066.5 1.28477 0.0818(28) 131337. 0.07624 0.08870
62072.7 1.28490 0.0866(29) 121470. 0.07623 0.08749
62078.9 1.28502 0.0844(28) 125906. 0.07623 0.08642
62085.1 1.28515 0.0812(28) 131778. 0.07623 0.08549
62091.3 1.28528 0.0798(27) 133896. 0.07622 0.08467
62097.5 1.28541 0.0814(28) 132134. 0.07622 0.08395
62103.7 1.28554 0.0851(28) 125605. 0.07621 0.08331
62109.9 1.28567 0.0805(27) 133391. 0.07621 0.08274
62116.15 1.28579 0.0757(26) 143477. 0.07621 0.08223
62122.4 1.28592 0.0788(27) 136645. 0.07620 0.08178
62128.6 1.28605 0.0808(27) 132898. 0.07620 0.08137
62134.8 1.28618 0.0805(27) 132801. 0.07620 0.08101
62141.0 1.28631 0.0808(27) 133128. 0.07619 0.08069
62147.2 1.28644 0.0813(28) 130885. 0.07619 0.08040
62153.4 1.28657 0.0789(27) 135645. 0.07618 0.08013
62159.65 1.28670 0.0795(27) 136093. 0.07618 0.07989
62165.9 1.28682 0.0807(27) 132682. 0.07618 0.07967
62172.1 1.28695 0.0762(27) 140633. 0.07617 0.07947
62178.3 1.28708 0.0755(27) 140013. 0.07617 0.07929
62184.5 1.28721 0.0737(26) 145019. 0.07616 0.07912
62190.7 1.28734 0.0765(27) 140240. 0.07616 0.07896
62196.95 1.28747 0.0787(27) 136055. 0.07616 0.07882
62203.2 1.28760 0.0760(27) 141069. 0.07615 0.07869
62209.4 1.28773 0.0800(27) 132658. 0.07615 0.07856
62215.6 1.28785 0.0800(28) 132106. 0.07615 0.07845
62221.8 1.28798 0.0745(27) 141950. 0.07614 0.07835
62228.05 1.28811 0.0772(27) 138726. 0.07614 0.07825
62234.3 1.28824 0.0826(28) 127594. 0.07613 0.07815
62240.5 1.28837 0.0790(27) 134317. 0.07613 0.07807
62246.7 1.28850 0.0800(28) 131462. 0.07613 0.07799
62252.95 1.28863 0.0769(27) 140448. 0.07612 0.07791
62259.2 1.28876 0.0773(27) 138475. 0.07612 0.07784
62265.4 1.28888 0.0804(28) 130668. 0.07612 0.07777
62271.6 1.28901 0.0764(27) 139565. 0.07611 0.07770
62277.85 1.28914 0.0785(27) 136952. 0.07611 0.07764
62284.1 1.28927 0.0798(28) 131399. 0.07610 0.07758
62290.3 1.28940 0.0751(27) 141598. 0.07610 0.07753
62296.55 1.28953 0.0738(26) 148008. 0.07610 0.07748
62302.8 1.28966 0.0758(27) 141911. 0.07609 0.07743
62309.0 1.28979 0.0804(28) 131879. 0.07609 0.07738
62315.2 1.28992 0.0806(28) 130823. 0.07608 0.07734
62321.45 1.29005 0.0778(27) 137031. 0.07608 0.07729
62327.7 1.29017 0.0711(26) 152248. 0.07608 0.07725
62333.9 1.29030 0.0787(27) 132341. 0.07607 0.07721
62340.15 1.29043 0.0771(27) 141247. 0.07607 0.07717
62346.4 1.29056 0.0778(27) 138937. 0.07607 0.07714
62352.6 1.29069 0.0781(27) 136917. 0.07606 0.07710
62358.85 1.29082 0.0747(26) 145984. 0.07606 0.07707
62365.1 1.29095 0.0738(26) 148127. 0.07605 0.07704
62371.35 1.29108 0.0761(27) 141416. 0.07605 0.07701
62377.6 1.29121 0.0699(25) 158473. 0.07605 0.07698
62383.8 1.29134 0.0752(26) 142998. 0.07604 0.07695
62390.05 1.29147 0.0779(27) 139601. 0.07604 0.07692
62396.3 1.29159 0.0803(27) 134742. 0.07603 0.07689
62402.55 1.29172 0.0734(26) 152197. 0.07603 0.07687
62408.8 1.29185 0.0756(27) 142266. 0.07603 0.07684
62415.0 1.29198 0.0731(26) 149747. 0.07602 0.07682
62421.25 1.29211 0.0717(25) 155648. 0.07602 0.07679
62427.5 1.29224 0.0734(26) 149663. 0.07602 0.07677
62433.75 1.29237 0.0728(26) 152393. 0.07601 0.07675
62440.0 1.29250 0.0752(26) 143788. 0.07601 0.07673
62446.2 1.29263 0.0758(27) 142205. 0.07600 0.07671
62452.45 1.29276 0.0736(26) 152153. 0.07600 0.07668
62458.7 1.29289 0.0799(27) 133615. 0.07600 0.07667
62464.95 1.29302 0.0724(25) 153998. 0.07599 0.07665
62471.2 1.29315 0.0776(27) 138392. 0.07599 0.07663
62477.45 1.29327 0.0741(26) 148332. 0.07598 0.07661
62483.7 1.29340 0.0737(26) 144272. 0.07598 0.07659
62489.95 1.29353 0.0695(25) 157955. 0.07598 0.07657
62496.2 1.29366 0.0737(26) 147139. 0.07597 0.07656
62502.45 1.29379 0.0717(26) 153230. 0.07597 0.07654
62508.7 1.29392 0.0715(26) 151520. 0.07596 0.07653
62514.95 1.29405 0.0805(27) 132341. 0.07596 0.07651
62521.2 1.29418 0.0788(27) 136554. 0.07596 0.07649
62527.45 1.29431 0.0786(27) 137517. 0.07595 0.07648
62533.7 1.29444 0.0761(27) 140245. 0.07595 0.07647
62539.95 1.29457 0.0735(26) 146728. 0.07595 0.07645
62546.2 1.29470 0.0766(27) 137978. 0.07594 0.07644
62552.45 1.29483 0.0749(26) 143666. 0.07594 0.07642
62558.7 1.29496 0.0756(27) 139938. 0.07593 0.07641
62564.95 1.29509 0.0807(28) 130372. 0.07593 0.07640
62571.25 1.29522 0.0781(27) 136243. 0.07593 0.07639
62577.5 1.29535 0.0775(27) 135732. 0.07592 0.07637
62583.75 1.29548 0.0779(27) 137963. 0.07592 0.07636
62590.0 1.29560 0.0784(27) 134527. 0.07591 0.07635
62596.25 1.29573 0.0763(27) 138288. 0.07591 0.07635
62602.55 1.29586 0.0741(26) 145775. 0.07591 0.07634
62608.8 1.29599 0.0774(27) 134882. 0.07590 0.07633
62615.05 1.29612 0.0748(27) 142004. 0.07590 0.07632
62621.3 1.29625 0.0799(28) 130748. 0.07589 0.07631
62627.55 1.29638 0.0747(26) 142953. 0.07589 0.07631
62633.85 1.29651 0.0716(26) 149319. 0.07589 0.07630
62640.1 1.29664 0.0791(28) 131233. 0.07588 0.07629
62646.35 1.29677 0.0777(27) 137681. 0.07588 0.07628
62652.65 1.29690 0.0774(27) 138859. 0.07587 0.07627
62658.9 1.29703 0.0799(28) 130738. 0.07587 0.07626
62665.15 1.29716 0.0751(26) 142573. 0.07587 0.07625
62671.45 1.29729 0.0714(26) 150350. 0.07586 0.07624
62677.7 1.29742 0.0696(25) 155286. 0.07586 0.07623
62683.95 1.29755 0.0738(26) 146002. 0.07586 0.07622
62690.25 1.29768 0.0726(26) 149729. 0.07585 0.07621
62696.5 1.29781 0.0723(26) 148385. 0.07585 0.07621
62702.75 1.29794 0.0730(26) 148308. 0.07584 0.07620
62709.05 1.29807 0.0733(26) 149339. 0.07584 0.07619
62715.3 1.29820 0.0761(26) 142538. 0.07584 0.07618
62721.55 1.29833 0.0743(26) 146802. 0.07583 0.07617
62727.85 1.29846 0.0717(26) 152276. 0.07583 0.07616
62734.15 1.29859 0.0735(26) 146576. 0.07582 0.07616
62740.4 1.29872 0.0733(26) 146006. 0.07582 0.07615
62746.65 1.29885 0.0757(27) 141317. 0.07582 0.07614
62752.95 1.29898 0.0731(26) 147316. 0.07581 0.07613
62759.25 1.29911 0.0722(26) 150513. 0.07581 0.07612
62765.5 1.29924 0.0758(27) 139658. 0.07580 0.07612
62771.75 1.29937 0.0730(26) 149130. 0.07580 0.07611
62778.05 1.29950 0.0765(27) 139886. 0.07580 0.07610
62784.35 1.29963 0.0713(26) 152429. 0.07579 0.07610
62790.6 1.29976 0.0745(27) 140033. 0.07579 0.07609
62796.85 1.29989 0.0715(26) 149548. 0.07578 0.07608
62803.15 1.30002 0.0735(26) 145176. 0.07578 0.07607
62809.45 1.30015 0.0772(27) 137707. 0.07578 0.07607
62815.75 1.30028 0.0774(27) 135296. 0.07577 0.07606
62822.05 1.30041 0.0696(26) 153778. 0.07577 0.07605
62828.3 1.30054 0.0709(26) 148560. 0.07576 0.07605
62834.55 1.30067 0.0730(26) 145298. 0.07576 0.07604
62840.85 1.30080 0.0716(26) 150671. 0.07576 0.07603
62847.15 1.30093 0.0787(27) 132640. 0.07575 0.07603
62853.45 1.30106 0.0784(27) 133790. 0.07575 0.07602
62859.75 1.30119 0.0756(27) 141387. 0.07574 0.07602
62866.0 1.30132 0.0775(27) 136236. 0.07574 0.07601
62872.25 1.30145 0.0739(26) 144814. 0.07574 0.07600
62878.55 1.30158 0.0750(27) 140909. 0.07573 0.07600
62884.85 1.30171 0.0748(27) 142148. 0.07573 0.07599
62891.15 1.30184 0.0727(26) 147882. 0.07572 0.07599
62897.45 1.30197 0.0789(27) 132463. 0.07572 0.07594
62903.75 1.30210 0.0770(27) 138645. 0.07572 0.07593
62910.05 1.30223 0.0745(26) 143994. 0.07571 0.07593
62916.3 1.30236 0.0772(27) 133351. 0.07571 0.07592
62922.55 1.30249 0.0739(26) 143282. 0.07570 0.07592
62928.85 1.30262 0.0713(26) 150624. 0.07570 0.07591
62935.15 1.30275 0.0711(26) 150851. 0.07570 0.07591
62941.45 1.30288 0.0742(26) 142837. 0.07569 0.07590
62947.75 1.30301 0.0768(27) 137186. 0.07569 0.07588
62954.05 1.30314 0.0725(26) 149947. 0.07568 0.07588
62960.35 1.30327 0.0741(26) 143187. 0.07568 0.07587
62966.65 1.30340 0.0748(27) 140596. 0.07568 0.07587
62972.95 1.30353 0.0754(27) 141700. 0.07567 0.07586
62979.25 1.30366 0.0737(26) 144314. 0.07567 0.07586
62985.55 1.30379 0.0754(27) 138715. 0.07567 0.07586
62991.85 1.30392 0.0722(26) 147648. 0.07566 0.07585
62998.15 1.30405 0.0673(25) 160067. 0.07566 0.07585
63004.45 1.30418 0.0709(26) 150202. 0.07565 0.07577
63010.75 1.30431 0.0754(27) 139416. 0.07565 0.07580
63017.05 1.30445 0.0742(27) 141520. 0.07565 0.07577
63023.35 1.30458 0.0722(26) 146019. 0.07564 0.07577
63029.65 1.30471 0.0695(26) 153665. 0.07564 0.07576
63035.95 1.30484 0.0729(26) 144222. 0.07563 0.07576
63042.25 1.30497 0.0725(26) 146701. 0.07563 0.07576
63048.55 1.30510 0.0741(27) 141546. 0.07563 0.07576
63054.85 1.30523 0.0760(27) 138444. 0.07562 0.07576
63061.15 1.30536 0.0781(27) 134608. 0.07562 0.07576
63067.45 1.30549 0.0743(26) 142592. 0.07561 0.07575
63073.75 1.30562 0.0747(27) 141460. 0.07561 0.07575
63080.1 1.30575 0.0699(25) 158053. 0.07561 0.07575
63086.45 1.30588 0.0728(26) 145634. 0.07560 0.07575
63092.75 1.30601 0.0729(26) 147162. 0.07560 0.07575
63099.05 1.30614 0.0748(26) 143218. 0.07559 0.07575
63105.35 1.30627 0.0709(26) 152566. 0.07559 0.07574
63111.65 1.30640 0.0690(25) 156054. 0.07559 0.07574
63117.95 1.30653 0.0727(26) 146328. 0.07558 0.07574
63124.25 1.30666 0.0745(26) 143487. 0.07558 0.07574
63130.55 1.30680 0.0756(27) 140325. 0.07557 0.07574
63136.85 1.30693 0.0723(26) 147977. 0.07557 0.07574
63143.2 1.30706 0.0733(26) 146321. 0.07557 0.07574
63149.55 1.30719 0.0779(27) 135790. 0.07556 0.07574
63155.85 1.30732 0.0801(27) 132282. 0.07556 0.07574
63162.15 1.30745 0.0763(27) 141458. 0.07555 0.07574
63168.45 1.30758 0.0774(27) 138301. 0.07555 0.07574
63174.75 1.30771 0.0759(27) 140379. 0.07555 0.07574
63181.1 1.30784 0.0720(26) 150852. 0.07554 0.07574
63187.45 1.30797 0.0746(27) 141756. 0.07554 0.07574
63193.75 1.30810 0.0734(26) 145405. 0.07553 0.07574
63200.05 1.30823 0.0760(27) 139822. 0.07553 0.07574
63206.35 1.30836 0.0749(27) 141901. 0.07552 0.07574
63212.7 1.30850 0.0755(27) 141629. 0.07552 0.07574
63219.05 1.30863 0.0773(27) 138098. 0.07552 0.07574
63225.35 1.30876 0.0754(26) 142624. 0.07551 0.07574
63231.65 1.30889 0.0735(26) 146704. 0.07551 0.07574
63237.95 1.30902 0.0759(27) 139471. 0.07550 0.07574
63244.3 1.30915 0.0724(26) 150202. 0.07550 0.07574
63250.65 1.30928 0.0769(27) 137289. 0.07550 0.07574
63256.95 1.30941 0.0748(26) 145121. 0.07549 0.07574
63263.25 1.30954 0.0759(27) 141387. 0.07549 0.07575
63269.6 1.30967 0.0709(26) 153640. 0.07548 0.07575
63275.95 1.30981 0.0745(27) 141084. 0.07548 0.07575
63282.25 1.30994 0.0764(27) 136793. 0.07548 0.07575
63288.6 1.31007 0.0752(27) 141807. 0.07547 0.07576
63294.95 1.31020 0.0805(28) 128999. 0.07547 0.07576
63301.25 1.31033 0.0768(27) 137043. 0.07546 0.07576
63307.55 1.31046 0.0763(27) 136515. 0.07546 0.07577
63313.9 1.31059 0.0718(26) 148129. 0.07546 0.07577
63320.25 1.31072 0.0739(27) 140307. 0.07545 0.07578
63326.55 1.31085 0.0757(27) 137296. 0.07545 0.07578
63332.9 1.31098 0.0700(25) 156106. 0.07544 0.07579
63339.25 1.31112 0.0739(26) 143332. 0.07544 0.07579
63345.55 1.31125 0.0741(26) 143514. 0.07544 0.07580
63351.9 1.31138 0.0684(25) 160253. 0.07543 0.07581
63358.25 1.31151 0.0688(25) 155919. 0.07543 0.07582
63364.55 1.31164 0.0745(26) 142765. 0.07542 0.07582
63370.9 1.31177 0.0747(26) 145131. 0.07542 0.07583
63377.25 1.31190 0.0745(26) 142561. 0.07542 0.07584
63383.6 1.31203 0.0724(26) 148164. 0.07541 0.07585
63389.95 1.31217 0.0716(26) 148604. 0.07541 0.07586
63396.25 1.31230 0.0717(26) 148580. 0.07540 0.07588
63402.6 1.31243 0.0706(26) 153748. 0.07540 0.07589
63408.95 1.31256 0.0700(26) 152919. 0.07540 0.07590
63415.3 1.31269 0.0685(25) 159315. 0.07539 0.07592
63421.65 1.31282 0.0717(26) 149956. 0.07539 0.07593
63427.95 1.31295 0.0706(25) 154461. 0.07538 0.07595
63434.3 1.31308 0.0731(26) 150363. 0.07538 0.07597
63440.65 1.31321 0.0748(26) 145215. 0.07538 0.07599
63447.0 1.31335 0.0753(26) 144043. 0.07537 0.07601
63453.35 1.31348 0.0756(27) 140784. 0.07537 0.07604
63459.7 1.31361 0.0702(25) 155037. 0.07536 0.07606
63466.05 1.31374 0.0723(26) 144915. 0.07536 0.07609
63472.4 1.31387 0.0717(26) 149002. 0.07536 0.07612
63478.75 1.31400 0.0704(26) 151305. 0.07535 0.07616
63485.1 1.31414 0.0696(26) 151533. 0.07535 0.07620
63491.45 1.31427 0.0708(26) 147270. 0.07534 0.07624
63497.75 1.31440 0.0729(26) 144001. 0.07534 0.07628
63504.1 1.31453 0.0746(26) 143084. 0.07533 0.07633
63510.5 1.31466 0.0746(26) 143585. 0.07533 0.07639
63516.85 1.31479 0.0786(28) 131112. 0.07533 0.07646
63523.2 1.31492 0.0719(26) 149463. 0.07532 0.07653
63529.55 1.31506 0.0775(27) 135256. 0.07532 0.07662
63535.9 1.31519 0.0734(26) 148075. 0.07531 0.07671
63542.25 1.31532 0.0733(26) 143942. 0.07531 0.07682
63548.6 1.31545 0.0760(27) 140296. 0.07531 0.07695
63554.95 1.31558 0.0773(27) 136038. 0.07530 0.07709
63561.3 1.31571 0.0752(27) 141477. 0.07530 0.07726
63567.65 1.31584 0.0790(27) 132249. 0.07529 0.07745
63574.0 1.31598 0.0758(26) 142696. 0.07529 0.07767
63580.4 1.31611 0.0738(26) 145504. 0.07529 0.07792
63586.75 1.31624 0.0728(26) 146423. 0.07528 0.07821
63593.1 1.31637 0.0786(27) 134418. 0.07528 0.07855
63599.45 1.31650 0.0764(27) 142281. 0.07527 0.07895
63605.8 1.31663 0.0835(28) 127563. 0.07527 0.07944
63612.15 1.31677 0.0817(28) 128693. 0.07527 0.08003
63618.5 1.31690 0.0760(26) 142407. 0.07526 0.08075
63624.9 1.31703 0.0770(27) 139397. 0.07526 0.08162
63631.25 1.31716 0.0786(27) 132826. 0.07525 0.08267
63637.6 1.31729 0.0780(27) 139538. 0.07525 0.08391
63644.0 1.31742 0.0889(29) 118918. 0.07525 0.08537
63650.35 1.31756 0.0895(29) 115644. 0.07524 0.08703
63656.7 1.31769 0.0860(28) 123881. 0.07524 0.08891
63663.1 1.31782 0.0913(30) 114286. 0.07523 0.09098
63669.45 1.31795 0.0900(29) 115283. 0.07523 0.09317
63675.8 1.31808 0.0917(30) 113116. 0.07523 0.09538
63682.2 1.31822 0.0931(30) 110799. 0.07522 0.09753
63688.55 1.31835 0.0961(31) 105767. 0.07522 0.09946
63694.9 1.31848 0.0967(31) 106614. 0.07521 0.10111
63701.3 1.31861 0.1005(31) 101166. 0.07521 0.10240
63707.65 1.31874 0.0995(31) 101723. 0.07520 0.10323
63714.0 1.31887 0.0986(31) 104004. 0.07520 0.10354
63720.4 1.31901 0.1022(32) 99891. 0.07520 0.10331
63726.8 1.31914 0.0990(31) 104572. 0.07519 0.10254
63733.15 1.31927 0.1083(33) 91339. 0.07519 0.10133
63739.5 1.31940 0.1049(32) 96448. 0.07518 0.09978
63745.9 1.31953 0.1013(32) 100055. 0.07518 0.09798
63752.3 1.31967 0.1016(32) 100144. 0.07518 0.09606
63758.65 1.31980 0.0984(31) 102980. 0.07517 0.09413
63765.0 1.31993 0.0953(30) 108569. 0.07517 0.09223
63771.4 1.32006 0.0935(30) 111634. 0.07516 0.09041
63777.8 1.32019 0.0937(30) 108666. 0.07516 0.08872
63784.15 1.32033 0.0925(30) 108766. 0.07516 0.08719
63790.5 1.32046 0.0896(29) 115291. 0.07515 0.08581
63796.9 1.32059 0.0902(30) 113174. 0.07515 0.08458
63803.3 1.32072 0.0861(29) 120116. 0.07514 0.08350
63809.7 1.32086 0.0824(28) 126221. 0.07514 0.08255
63816.05 1.32099 0.0867(29) 116650. 0.07514 0.08174
63822.4 1.32112 0.0846(29) 122590. 0.07513 0.08104
63828.8 1.32125 0.0793(28) 131502. 0.07513 0.08043
63835.2 1.32138 0.0771(27) 136779. 0.07512 0.07990
63841.6 1.32152 0.0807(28) 128114. 0.07512 0.07945
63848.0 1.32165 0.0810(28) 127878. 0.07512 0.07907
63854.35 1.32178 0.0833(29) 123114. 0.07511 0.07874
63860.7 1.32191 0.0791(27) 133427. 0.07511 0.07846
63867.1 1.32204 0.0782(27) 134208. 0.07510 0.07823
63873.5 1.32218 0.0790(28) 131483. 0.07510 0.07802
63879.9 1.32231 0.0774(27) 135883. 0.07509 0.07785
63886.3 1.32244 0.0816(28) 127951. 0.07509 0.07771
63892.7 1.32257 0.0820(28) 126563. 0.07509 0.07760
63899.05 1.32270 0.0807(28) 125401. 0.07508 0.07750
63905.4 1.32284 0.0768(27) 135756. 0.07508 0.07743
63911.8 1.32297 0.0781(27) 132858. 0.07507 0.07737
63918.2 1.32310 0.0819(28) 124988. 0.07507 0.07734
63924.6 1.32323 0.0796(28) 129982. 0.07507 0.07731
63931.0 1.32337 0.0750(27) 137410. 0.07506 0.07731
63937.4 1.32350 0.0734(27) 140550. 0.07506 0.07731
63943.8 1.32363 0.0758(27) 136662. 0.07505 0.07734
63950.2 1.32376 0.0783(27) 134005. 0.07505 0.07737
63956.6 1.32390 0.0825(28) 124291. 0.07505 0.07743
63963.0 1.32403 0.0789(28) 130455. 0.07504 0.07750
63969.4 1.32416 0.0767(27) 135382. 0.07504 0.07760
63975.8 1.32429 0.0787(27) 132513. 0.07503 0.07771
63982.2 1.32443 0.0861(29) 116581. 0.07503 0.07786
63988.6 1.32456 0.0821(28) 125141. 0.07503 0.07805
63995.0 1.32469 0.0809(28) 128676. 0.07502 0.07828
64001.4 1.32482 0.0851(29) 119488. 0.07502 0.07857
64007.8 1.32496 0.0812(28) 127929. 0.07501 0.07893
64014.2 1.32509 0.0819(28) 126654. 0.07501 0.07939
64020.6 1.32522 0.0842(29) 122924. 0.07500 0.07998
64027.0 1.32535 0.0784(27) 135378. 0.07500 0.08070
64033.4 1.32549 0.0810(28) 128448. 0.07500 0.08160
64039.8 1.32562 0.0886(29) 116492. 0.07499 0.08268
64046.2 1.32575 0.0856(28) 123378. 0.07499 0.08398
64052.6 1.32588 0.0823(28) 127436. 0.07498 0.08549
64059.0 1.32602 0.0850(29) 122714. 0.07498 0.08720
64065.4 1.32615 0.0901(29) 115823. 0.07498 0.08908
64071.8 1.32628 0.0921(30) 114140. 0.07497 0.09106
64078.2 1.32641 0.0874(28) 123538. 0.07497 0.09303
64084.6 1.32655 0.0901(29) 117524. 0.07496 0.09488
64091.0 1.32668 0.0935(30) 110782. 0.07496 0.09651
64097.4 1.32681 0.0899(29) 117617. 0.07496 0.09788
64103.85 1.32694 0.0952(30) 110417. 0.07495 0.09904
64110.3 1.32708 0.0920(29) 115862. 0.07495 0.10007
64116.7 1.32721 0.1006(31) 102068. 0.07494 0.10110
64123.1 1.32734 0.1014(31) 102202. 0.07494 0.10225
64129.5 1.32748 0.1016(31) 102418. 0.07494 0.10364
64135.9 1.32761 0.1043(32) 98588. 0.07493 0.10532
64142.3 1.32774 0.1051(32) 98409. 0.07493 0.10732
64148.7 1.32787 0.1096(33) 92773. 0.07492 0.10956
64155.15 1.32801 0.1019(31) 104254. 0.07492 0.11187
64161.6 1.32814 0.1118(33) 90595. 0.07491 0.11399
64168.0 1.32827 0.1135(33) 89752. 0.07491 0.11560
64174.4 1.32841 0.1104(33) 93621. 0.07491 0.11646
64180.8 1.32854 0.1056(32) 98967. 0.07490 0.11645
64187.2 1.32867 0.1060(32) 97451. 0.07490 0.11557
64193.65 1.32880 0.1029(31) 101308. 0.07489 0.11392
64200.1 1.32894 0.1054(32) 98232. 0.07489 0.11169
64206.5 1.32907 0.1049(32) 98934. 0.07489 0.10907
64212.9 1.32920 0.1028(32) 99537. 0.07488 0.10623
64219.3 1.32933 0.0978(31) 103590. 0.07488 0.10330
64225.75 1.32947 0.0905(29) 115061. 0.07487 0.10038
64232.2 1.32960 0.0940(30) 108689. 0.07487 0.09759
64238.6 1.32973 0.0941(30) 107803. 0.07487 0.09501
64245.0 1.32987 0.0897(29) 115589. 0.07486 0.09265
64251.45 1.33000 0.0887(29) 118598. 0.07486 0.09051
64257.9 1.33013 0.0907(30) 113644. 0.07485 0.08860
64264.3 1.33027 0.0874(29) 118946. 0.07485 0.08694
64270.7 1.33040 0.0863(29) 119628. 0.07485 0.08548
64277.15 1.33053 0.0827(28) 127147. 0.07484 0.08420
64283.6 1.33067 0.0808(28) 128906. 0.07484 0.08309
64290.0 1.33080 0.0775(27) 135940. 0.07483 0.08214
64296.45 1.33093 0.0831(28) 125993. 0.07483 0.08131
64302.9 1.33107 0.0793(27) 132440. 0.07482 0.08059
64309.3 1.33120 0.0815(28) 125330. 0.07482 0.07997
64315.75 1.33133 0.0804(28) 130919. 0.07482 0.07943
64322.2 1.33147 0.0805(28) 126703. 0.07481 0.07896
64328.6 1.33160 0.0757(27) 136229. 0.07481 0.07855
64335.05 1.33173 0.0718(26) 148340. 0.07480 0.07819
64341.5 1.33186 0.0742(27) 140126. 0.07480 0.07787
64347.9 1.33200 0.0785(28) 130917. 0.07480 0.07760
64354.35 1.33213 0.0721(26) 148795. 0.07479 0.07736
64360.8 1.33226 0.0766(27) 133393. 0.07479 0.07714
64367.2 1.33240 0.0750(27) 136132. 0.07478 0.07695
64373.65 1.33253 0.0754(27) 138326. 0.07478 0.07682
64380.1 1.33266 0.0815(28) 127490. 0.07478 0.07667
64386.5 1.33280 0.0800(28) 129457. 0.07477 0.07654
64392.95 1.33293 0.0750(27) 139473. 0.07477 0.07642
64399.4 1.33306 0.0710(26) 147812. 0.07476 0.07631
64405.85 1.33320 0.0749(27) 138593. 0.07476 0.07621
64412.3 1.33333 0.0738(27) 141567. 0.07475 0.07612
64418.7 1.33346 0.0769(27) 133136. 0.07475 0.07604
64425.15 1.33360 0.0757(27) 138489. 0.07475 0.07597
64431.6 1.33373 0.0754(27) 139287. 0.07474 0.07590
64438.05 1.33386 0.0757(27) 140751. 0.07474 0.07584
64444.5 1.33400 0.0756(27) 137069. 0.07473 0.07578
64450.95 1.33413 0.0702(26) 150090. 0.07473 0.07573
64457.4 1.33426 0.0726(26) 143010. 0.07473 0.07568
64463.8 1.33440 0.0749(27) 138062. 0.07472 0.07563
64470.25 1.33453 0.0747(27) 140725. 0.07472 0.07559
64476.7 1.33466 0.0744(27) 139585. 0.07471 0.07555
64483.15 1.33480 0.0691(25) 156865. 0.07471 0.07551
64489.6 1.33493 0.0732(26) 143422. 0.07471 0.07548
64496.05 1.33506 0.0733(26) 143896. 0.07470 0.07545
64502.5 1.33520 0.0761(27) 133937. 0.07470 0.07541
64508.95 1.33533 0.0718(26) 148347. 0.07469 0.07539
64515.4 1.33546 0.0742(27) 139816. 0.07469 0.07545
64521.85 1.33560 0.0748(27) 140670. 0.07469 0.07543
64528.3 1.33573 0.0775(27) 134662. 0.07468 0.07540
64534.75 1.33587 0.0735(26) 145085. 0.07468 0.07538
64541.2 1.33600 0.0772(27) 132616. 0.07467 0.07536
64547.65 1.33613 0.0743(26) 144018. 0.07467 0.07534
64554.15 1.33627 0.0753(27) 141431. 0.07466 0.07532
64560.6 1.33640 0.0781(27) 132876. 0.07466 0.07530
64567.05 1.33653 0.0756(26) 142768. 0.07466 0.07528
64573.5 1.33667 0.0758(27) 138035. 0.07465 0.07527
64579.95 1.33680 0.0747(27) 141072. 0.07465 0.07525
64586.4 1.33693 0.0773(27) 133676. 0.07464 0.07524
64592.85 1.33707 0.0709(26) 150325. 0.07464 0.07522
64599.35 1.33720 0.0692(25) 154869. 0.07464 0.07521
64605.8 1.33734 0.0734(27) 141331. 0.07463 0.07519
64612.25 1.33747 0.0761(27) 136963. 0.07463 0.07518
64618.7 1.33760 0.0769(27) 135867. 0.07462 0.07517
64625.15 1.33774 0.0762(27) 138557. 0.07462 0.07516
64631.65 1.33787 0.0746(27) 141918. 0.07462 0.07515
64638.1 1.33800 0.0760(27) 136442. 0.07461 0.07513
64644.55 1.33814 0.0746(27) 141316. 0.07461 0.07512
64651.05 1.33827 0.0765(27) 138328. 0.07460 0.07511
64657.5 1.33841 0.0797(28) 130850. 0.07460 0.07510
64663.95 1.33854 0.0778(27) 134248. 0.07460 0.07510
64670.45 1.33867 0.0746(26) 142419. 0.07459 0.07509
64676.9 1.33881 0.0750(27) 138969. 0.07459 0.07508
64683.35 1.33894 0.0732(26) 144048. 0.07458 0.07507
64689.85 1.33908 0.0714(26) 149222. 0.07458 0.07506
64696.3 1.33921 0.0725(26) 144678. 0.07458 0.07505
64702.75 1.33934 0.0736(26) 143684. 0.07457 0.07505
64709.25 1.33948 0.0704(26) 150409. 0.07457 0.07504
64715.7 1.33961 0.0737(27) 138744. 0.07456 0.07503
64722.15 1.33974 0.0752(27) 140315. 0.07456 0.07503
64728.65 1.33988 0.0728(26) 145081. 0.07455 0.07502
64735.15 1.34001 0.0698(26) 151402. 0.07455 0.07501
64741.6 1.34015 0.0727(26) 144504. 0.07455 0.07501
64748.05 1.34028 0.0735(26) 142455. 0.07454 0.07500
64754.55 1.34042 0.0694(26) 153217. 0.07454 0.07500
64761.05 1.34055 0.0679(25) 158476. 0.07453 0.07499
64767.5 1.34068 0.0737(26) 142710. 0.07453 0.07499
64773.95 1.34082 0.0752(27) 140573. 0.07453 0.07498
64780.45 1.34095 0.0728(26) 143637. 0.07452 0.07498
64786.95 1.34109 0.0705(26) 151327. 0.07452 0.07497
64793.4 1.34122 0.0744(27) 140437. 0.07451 0.07497
64799.85 1.34135 0.0736(26) 144513. 0.07451 0.07496
64806.35 1.34149 0.0753(27) 140188. 0.07451 0.07496
64812.85 1.34162 0.0772(27) 134462. 0.07450 0.07496
64819.35 1.34176 0.0740(27) 141167. 0.07450 0.07495
64825.85 1.34189 0.0720(26) 146924. 0.07449 0.07495
64832.3 1.34203 0.0762(27) 134131. 0.07449 0.07495
64838.75 1.34216 0.0669(25) 159053. 0.07449 0.07494
64845.25 1.34229 0.0696(26) 151208. 0.07448 0.07494
64851.75 1.34243 0.0787(27) 132530. 0.07448 0.07493
64858.25 1.34256 0.0763(27) 139243. 0.07447 0.07493
64864.75 1.34270 0.0755(27) 141017. 0.07447 0.07492
64871.2 1.34283 0.0801(28) 127204. 0.07447 0.07492
64877.65 1.34296 0.0722(26) 144600. 0.07446 0.07492
64884.15 1.34310 0.0658(25) 159981. 0.07446 0.07491
64890.65 1.34323 0.0700(26) 147244. 0.07445 0.07491
64897.15 1.34337 0.0717(26) 145491. 0.07445 0.07491
64903.65 1.34350 0.0741(27) 140363. 0.07444 0.07490
64910.15 1.34364 0.0732(26) 142691. 0.07444 0.07490
64916.65 1.34377 0.0733(26) 143986. 0.07444 0.07491
64923.15 1.34391 0.0764(27) 136575. 0.07443 0.07491
64929.65 1.34404 0.0740(27) 141856. 0.07443 0.07491
64936.15 1.34418 0.0778(27) 133767. 0.07442 0.07491
64942.65 1.34431 0.0739(26) 145065. 0.07442 0.07491
64949.1 1.34444 0.0785(28) 130950. 0.07442 0.07491
64955.55 1.34458 0.0743(27) 141908. 0.07441 0.07491
64962.05 1.34471 0.0746(27) 140078. 0.07441 0.07491
64968.55 1.34485 0.0720(26) 147371. 0.07440 0.07492
64975.05 1.34498 0.0721(26) 148710. 0.07440 0.07492
64981.55 1.34511 0.0745(27) 142228. 0.07440 0.07492
64988.05 1.34525 0.0740(26) 145384. 0.07439 0.07492
64994.55 1.34538 0.0723(26) 148951. 0.07439 0.07493
65001.05 1.34552 0.0704(26) 151070. 0.07438 0.07493
65007.55 1.34565 0.0708(26) 150170. 0.07438 0.07494
65014.05 1.34579 0.0689(25) 154174. 0.07438 0.07494
65020.55 1.34592 0.0691(25) 155415. 0.07437 0.07494
65027.05 1.34606 0.0747(26) 142880. 0.07437 0.07495
65033.55 1.34619 0.0746(26) 143083. 0.07436 0.07496
65040.05 1.34633 0.0723(26) 146317. 0.07436 0.07496
65046.55 1.34646 0.0730(26) 144025. 0.07436 0.07497
65053.05 1.34660 0.0746(27) 140663. 0.07435 0.07497
65059.55 1.34673 0.0699(26) 153244. 0.07435 0.07498
65066.1 1.34687 0.0716(26) 150062. 0.07434 0.07499
65072.65 1.34700 0.0712(26) 149220. 0.07434 0.07500
65079.15 1.34714 0.0765(27) 134340. 0.07434 0.07501
65085.65 1.34727 0.0714(26) 149082. 0.07433 0.07502
65092.15 1.34740 0.0721(26) 144651. 0.07433 0.07502
65098.65 1.34754 0.0698(26) 151209. 0.07432 0.07504
65105.15 1.34767 0.0723(26) 143896. 0.07432 0.07505
65111.65 1.34781 0.0719(26) 147063. 0.07431 0.07506
65118.15 1.34794 0.0747(27) 139426. 0.07431 0.07507
65124.65 1.34808 0.0723(26) 144357. 0.07431 0.07508
65131.2 1.34821 0.0732(27) 142000. 0.07430 0.07510
65137.75 1.34835 0.0741(27) 140254. 0.07430 0.07511
65144.25 1.34848 0.0748(27) 137648. 0.07429 0.07513
65150.75 1.34862 0.0746(27) 137472. 0.07429 0.07514
65157.25 1.34875 0.0725(26) 144350. 0.07429 0.07516
65163.75 1.34889 0.0744(27) 139820. 0.07428 0.07518
65170.25 1.34902 0.0741(26) 142909. 0.07428 0.07520
65176.8 1.34916 0.0759(27) 139011. 0.07427 0.07522
65183.35 1.34929 0.0740(27) 140943. 0.07427 0.07524
65189.85 1.34943 0.0725(26) 143636. 0.07427 0.07526
65196.35 1.34956 0.0766(28) 132183. 0.07426 0.07529
65202.85 1.34970 0.0740(27) 140376. 0.07426 0.07531
65209.4 1.34983 0.0747(27) 137939. 0.07425 0.07534
65215.95 1.34997 0.0771(28) 130034. 0.07425 0.07537
65222.45 1.35010 0.0739(27) 138900. 0.07425 0.07540
65228.95 1.35024 0.0748(27) 136028. 0.07424 0.07543
65235.45 1.35037 0.0747(27) 137423. 0.07424 0.07547
65242.0 1.35051 0.0782(28) 131010. 0.07423 0.07550
65248.55 1.35064 0.0795(28) 127274. 0.07423 0.07554
65255.05 1.35078 0.0745(27) 136589. 0.07423 0.07558
65261.55 1.35091 0.0800(28) 123716. 0.07422 0.07561
65268.1 1.35105 0.0733(26) 143336. 0.07422 0.07566
65274.65 1.35118 0.0748(27) 136014. 0.07421 0.07571
65281.15 1.35132 0.0742(27) 137177. 0.07421 0.07576
65287.7 1.35145 0.0740(27) 141165. 0.07421 0.07582
65294.25 1.35159 0.0805(28) 125459. 0.07420 0.07588
65300.75 1.35172 0.0781(28) 130881. 0.07420 0.07594
65307.25 1.35186 0.0752(27) 135689. 0.07419 0.07601
65313.8 1.35199 0.0732(26) 143367. 0.07419 0.07609
65320.35 1.35213 0.0760(27) 135878. 0.07419 0.07617
65326.85 1.35226 0.0780(28) 131569. 0.07418 0.07626
65333.4 1.35240 0.0802(28) 128990. 0.07418 0.07635
65339.95 1.35253 0.0790(28) 128762. 0.07417 0.07643
65346.45 1.35267 0.0752(27) 136173. 0.07417 0.07654
65353.0 1.35280 0.0752(27) 138462. 0.07417 0.07666
65359.55 1.35294 0.0799(28) 126183. 0.07416 0.07679
65366.05 1.35307 0.0757(27) 136953. 0.07416 0.07693
65372.6 1.35321 0.0765(27) 136686. 0.07415 0.07709
65379.15 1.35335 0.0762(27) 137001. 0.07415 0.07727
65385.7 1.35348 0.0768(27) 138829. 0.07415 0.07746
65392.25 1.35362 0.0819(28) 125157. 0.07414 0.07767
65398.75 1.35375 0.0769(27) 134828. 0.07414 0.07791
65405.3 1.35389 0.0762(27) 136034. 0.07413 0.07818
65411.85 1.35402 0.0756(27) 135771. 0.07413 0.07849
65418.4 1.35416 0.0761(27) 137836. 0.07413 0.07884
65424.95 1.35429 0.0806(28) 125836. 0.07412 0.07925
65431.45 1.35443 0.0796(28) 128223. 0.07412 0.07973
65438.0 1.35456 0.0798(28) 130690. 0.07411 0.08032
65444.55 1.35470 0.0831(29) 122450. 0.07411 0.08105
65451.1 1.35484 0.0833(29) 121804. 0.07411 0.08195
65457.65 1.35497 0.0827(29) 121165. 0.07410 0.08308
65464.2 1.35511 0.0832(29) 122850. 0.07410 0.08450
65470.75 1.35524 0.0883(30) 113896. 0.07409 0.08628
65477.3 1.35538 0.0890(30) 114359. 0.07409 0.08847
65483.85 1.35551 0.0943(31) 106767. 0.07409 0.09115
65490.4 1.35565 0.1010(32) 100398. 0.07408 0.09434
65496.95 1.35578 0.1097(33) 89771. 0.07408 0.09809
65503.5 1.35592 0.1090(33) 92551. 0.07407 0.10234
65510.05 1.35606 0.1133(34) 86563. 0.07407 0.10699
65516.6 1.35619 0.1178(35) 83610. 0.07407 0.11186
65523.15 1.35633 0.122(4) 80722. 0.0741 0.1166
65529.7 1.35646 0.129(4) 76488. 0.0741 0.1209
65536.25 1.35660 0.134(4) 72279. 0.0741 0.1243
65542.8 1.35673 0.128(4) 77698. 0.0740 0.1265
65549.35 1.35687 0.134(4) 72067. 0.0740 0.1275
65555.91 1.35701 0.135(4) 73217. 0.0740 0.1274
65562.45 1.35714 0.130(4) 76436. 0.0740 0.1263
65569.0 1.35728 0.131(4) 76100. 0.0740 0.1245
65575.6 1.35741 0.1189(34) 85570. 0.07403 0.12247
65582.15 1.35755 0.1156(34) 87391. 0.07403 0.12036
65588.7 1.35768 0.1154(34) 88551. 0.07402 0.11847
65595.25 1.35782 0.121(4) 80911. 0.0740 0.1171
65601.8 1.35796 0.1155(34) 87684. 0.07401 0.11639
65608.41 1.35809 0.1157(34) 87307. 0.07401 0.11664
65614.95 1.35823 0.1209(35) 82213. 0.07401 0.11800
65621.5 1.35836 0.1237(35) 81541. 0.07400 0.12062
65628.05 1.35850 0.127(4) 78383. 0.0740 0.1246
65634.6 1.35863 0.127(4) 79271. 0.0740 0.1300
65641.2 1.35877 0.133(4) 74848. 0.0740 0.1368
65647.75 1.35891 0.145(4) 67554. 0.0740 0.1446
65654.3 1.35904 0.151(4) 65492. 0.0740 0.1532
65660.91 1.35918 0.156(4) 62592. 0.0740 0.1620
65667.45 1.35931 0.167(4) 57411. 0.0740 0.1700
65674.0 1.35945 0.171(4) 56985. 0.0740 0.1764
65680.6 1.35959 0.174(4) 55181. 0.0740 0.1804
65687.15 1.35972 0.172(4) 55495. 0.0740 0.1817
65693.7 1.35986 0.176(4) 54375. 0.0740 0.1803
65700.3 1.35999 0.177(4) 54393. 0.0740 0.1766
65706.85 1.36013 0.176(4) 53884. 0.0740 0.1711
65713.41 1.36027 0.167(4) 58491. 0.0739 0.1644
65720.0 1.36040 0.162(4) 59618. 0.0739 0.1569
65726.6 1.36054 0.152(4) 64246. 0.0739 0.1491
65733.15 1.36067 0.144(4) 67706. 0.0739 0.1414
65739.7 1.36081 0.130(4) 76569. 0.0739 0.1340
65746.3 1.36095 0.124(4) 81236. 0.0739 0.1270
65752.85 1.36108 0.125(4) 78572. 0.0739 0.1207
65759.41 1.36122 0.1157(34) 87197. 0.07392 0.11499
65766.0 1.36135 0.1056(32) 96498. 0.07392 0.10989
65772.6 1.36149 0.1000(31) 102217. 0.07391 0.10542
65779.2 1.36163 0.0993(31) 101677. 0.07391 0.10151
65785.75 1.36176 0.0909(30) 112495. 0.07390 0.09815
65792.3 1.36190 0.0917(30) 111059. 0.07390 0.09524
65798.91 1.36204 0.0896(29) 115369. 0.07390 0.09271
65805.5 1.36217 0.0887(29) 115578. 0.07389 0.09053
65812.1 1.36231 0.0859(29) 119303. 0.07389 0.08864
65818.65 1.36244 0.0882(30) 114305. 0.07388 0.08703
65825.2 1.36258 0.0907(30) 112361. 0.07388 0.08563
65831.8 1.36272 0.0858(29) 119485. 0.07388 0.08440
65838.41 1.36285 0.0817(28) 125229. 0.07387 0.08334
65845.0 1.36299 0.0809(28) 126948. 0.07387 0.08242
65851.6 1.36313 0.0821(28) 124939. 0.07386 0.08161
65858.15 1.36326 0.0832(29) 122071. 0.07386 0.08091
65864.7 1.36340 0.0791(28) 131554. 0.07386 0.08029
65871.3 1.36353 0.0794(28) 131153. 0.07385 0.07975
65877.91 1.36367 0.0774(27) 135261. 0.07385 0.07926
65884.5 1.36381 0.0762(27) 137172. 0.07384 0.07884
65891.1 1.36394 0.0745(27) 141301. 0.07384 0.07846
65897.7 1.36408 0.0748(27) 138959. 0.07384 0.07812
65904.25 1.36422 0.0791(28) 125242. 0.07383 0.07782
65910.8 1.36435 0.0789(28) 128523. 0.07383 0.07755
65917.41 1.36449 0.0792(28) 127839. 0.07382 0.07730
65924.0 1.36463 0.0778(27) 133466. 0.07382 0.07708
65930.6 1.36476 0.0710(26) 149884. 0.07382 0.07688
65937.2 1.36490 0.0709(26) 146580. 0.07381 0.07670
65943.8 1.36504 0.0770(27) 133659. 0.07381 0.07653
65950.41 1.36517 0.0747(27) 139069. 0.07381 0.07638
65957.0 1.36531 0.0763(27) 135483. 0.07380 0.07624
65963.6 1.36545 0.0757(27) 136871. 0.07380 0.07611
65970.2 1.36558 0.0721(26) 145719. 0.07379 0.07599
65976.8 1.36572 0.0737(27) 141584. 0.07379 0.07588
65983.41 1.36586 0.0716(26) 146357. 0.07379 0.07578
65990.0 1.36599 0.0710(26) 146891. 0.07378 0.07569
65996.6 1.36613 0.0769(27) 132815. 0.07378 0.07560
66003.2 1.36627 0.0721(26) 149199. 0.07377 0.07552
66009.8 1.36640 0.0774(27) 134143. 0.07377 0.07544
66016.41 1.36654 0.0780(28) 132009. 0.07377 0.07537
66023.0 1.36668 0.0744(27) 141027. 0.07376 0.07530
66029.6 1.36681 0.0763(27) 135460. 0.07376 0.07523
66036.2 1.36695 0.0766(27) 134589. 0.07375 0.07517
66042.8 1.36709 0.0775(27) 133220. 0.07375 0.07512
66049.41 1.36722 0.0748(27) 140664. 0.07375 0.07506
66056.0 1.36736 0.0781(28) 131747. 0.07374 0.07501
66062.6 1.36750 0.0747(27) 139392. 0.07374 0.07496
66069.2 1.36763 0.0738(27) 140212. 0.07374 0.07492
66075.8 1.36777 0.0753(27) 135575. 0.07373 0.07487
66082.41 1.36791 0.0727(26) 144462. 0.07373 0.07483
66089.0 1.36804 0.0752(27) 137758. 0.07372 0.07479
66095.66 1.36818 0.0733(27) 142218. 0.07372 0.07475
66102.3 1.36832 0.0766(28) 132147. 0.07372 0.07472
66108.91 1.36845 0.0731(27) 141713. 0.07371 0.07468
66115.5 1.36859 0.0764(27) 132940. 0.07371 0.07465
66122.1 1.36873 0.0724(26) 143833. 0.07370 0.07462
66128.7 1.36886 0.0718(26) 144732. 0.07370 0.07459
66135.3 1.36900 0.0726(26) 142923. 0.07370 0.07456
66141.91 1.36914 0.0772(28) 130204. 0.07369 0.07453
66148.55 1.36927 0.0705(26) 150188. 0.07369 0.07450
66155.2 1.36941 0.0756(27) 134324. 0.07368 0.07447
66161.8 1.36955 0.0726(27) 141415. 0.07368 0.07445
66168.41 1.36969 0.0705(26) 146316. 0.07368 0.07442
66175.0 1.36982 0.0754(27) 134578. 0.07367 0.07440
66181.6 1.36996 0.0754(27) 137088. 0.07367 0.07438
66188.25 1.37010 0.0727(26) 145583. 0.07367 0.07436
66194.91 1.37023 0.0761(27) 134602. 0.07366 0.07433
66201.5 1.37037 0.0686(26) 152551. 0.07366 0.07431
66208.1 1.37051 0.0751(27) 134076. 0.07365 0.07429
66214.7 1.37064 0.0738(27) 139951. 0.07365 0.07427
66221.3 1.37078 0.0717(26) 144959. 0.07365 0.07426
66227.95 1.37092 0.0725(27) 142327. 0.07364 0.07424
66234.6 1.37106 0.0716(26) 143588. 0.07364 0.07422
66241.2 1.37119 0.0730(27) 138877. 0.07363 0.07420
66247.8 1.37133 0.0756(27) 132834. 0.07363 0.07418
66254.45 1.37147 0.0749(27) 137821. 0.07363 0.07417
66261.1 1.37160 0.0716(26) 143411. 0.07362 0.07415
66267.7 1.37174 0.0734(27) 137252. 0.07362 0.07414
66274.35 1.37188 0.0686(26) 151459. 0.07362 0.07412
66281.0 1.37202 0.0726(27) 139440. 0.07361 0.07411
66287.6 1.37215 0.0723(27) 141186. 0.07361 0.07409
66294.2 1.37229 0.0679(25) 153794. 0.07360 0.07408
66300.85 1.37243 0.0722(27) 141432. 0.07360 0.07406
66307.5 1.37257 0.0746(27) 134775. 0.07360 0.07405
66314.1 1.37270 0.0745(27) 137215. 0.07359 0.07404
66320.75 1.37284 0.0728(26) 142598. 0.07359 0.07402
66327.41 1.37298 0.0777(28) 127752. 0.07359 0.07401
66334.0 1.37311 0.0722(26) 142577. 0.07358 0.07400
66340.66 1.37325 0.0760(27) 134837. 0.07358 0.07399
66347.3 1.37339 0.0785(28) 128284. 0.07357 0.07398
66353.91 1.37353 0.0747(27) 134591. 0.07357 0.07396
66360.55 1.37366 0.0749(27) 134792. 0.07357 0.07395
66367.2 1.37380 0.0771(28) 128958. 0.07356 0.07394
66373.8 1.37394 0.0771(28) 131274. 0.07356 0.07393
66380.45 1.37408 0.0762(27) 135923. 0.07355 0.07392
66387.1 1.37421 0.0778(28) 128767. 0.07355 0.07391
66393.75 1.37435 0.0744(27) 138565. 0.07355 0.07390
66400.41 1.37449 0.0730(27) 139734. 0.07354 0.07389
66407.0 1.37462 0.0750(27) 134671. 0.07354 0.07388
66413.66 1.37476 0.0740(27) 139817. 0.07354 0.07387
66420.3 1.37490 0.0755(27) 134913. 0.07353 0.07386
66426.95 1.37504 0.0790(28) 128982. 0.07353 0.07385
66433.6 1.37518 0.0788(28) 128750. 0.07352 0.07384
66440.2 1.37531 0.0773(28) 131144. 0.07352 0.07383
66446.85 1.37545 0.0731(27) 141024. 0.07352 0.07382
66453.5 1.37559 0.0730(27) 139555. 0.07351 0.07381
66460.16 1.37573 0.0715(26) 145688. 0.07351 0.07380
66466.8 1.37586 0.0744(27) 137057. 0.07351 0.07380
66473.45 1.37600 0.0706(26) 148413. 0.07350 0.07379
66480.1 1.37614 0.0734(27) 138910. 0.07350 0.07378
66486.75 1.37628 0.0737(27) 141114. 0.07349 0.07377
66493.41 1.37641 0.0735(27) 139063. 0.07349 0.07376
66500.05 1.37655 0.0732(27) 142150. 0.07349 0.07375
66506.7 1.37669 0.0776(28) 132070. 0.07348 0.07375
66513.35 1.37683 0.0727(26) 143308. 0.07348 0.07374
66520.0 1.37696 0.0677(25) 154916. 0.07348 0.07373
66526.66 1.37710 0.0728(27) 142120. 0.07347 0.07372
66533.3 1.37724 0.0775(28) 131078. 0.07347 0.07372
66539.95 1.37738 0.0726(26) 144776. 0.07346 0.07371
66546.6 1.37751 0.0710(26) 146021. 0.07346 0.07370
66553.25 1.37765 0.0728(26) 144016. 0.07346 0.07369
66559.91 1.37779 0.0790(28) 128539. 0.07345 0.07369
66566.55 1.37793 0.0717(26) 144341. 0.07345 0.07368
66573.25 1.37807 0.0740(27) 138613. 0.07345 0.07367
66579.91 1.37820 0.0795(28) 127882. 0.07344 0.07366
66586.55 1.37834 0.0782(28) 131775. 0.07344 0.07366
66593.2 1.37848 0.0762(27) 135016. 0.07343 0.07365
66599.85 1.37862 0.0762(27) 135482. 0.07343 0.07364
66606.55 1.37876 0.0767(27) 132567. 0.07343 0.07364
66613.2 1.37889 0.0708(26) 145070. 0.07342 0.07363
66619.85 1.37903 0.0731(27) 138846. 0.07342 0.07362
66626.5 1.37917 0.0693(26) 151882. 0.07342 0.07362
66633.16 1.37931 0.0766(27) 134328. 0.07341 0.07361
66639.85 1.37945 0.0760(27) 135101. 0.07341 0.07360
66646.5 1.37958 0.0733(27) 137571. 0.07340 0.07360
66653.16 1.37972 0.0689(26) 149203. 0.07340 0.07359
66659.85 1.37986 0.0665(25) 159033. 0.07340 0.07359
66666.5 1.38000 0.0732(27) 139896. 0.07339 0.07358
66673.16 1.38013 0.0736(27) 141137. 0.07339 0.07357
66679.85 1.38027 0.0758(27) 135758. 0.07339 0.07357
66686.5 1.38041 0.0728(27) 142358. 0.07338 0.07356
66693.16 1.38055 0.0703(26) 150281. 0.07338 0.07355
66699.85 1.38069 0.0730(26) 142890. 0.07337 0.07355
66706.5 1.38083 0.0749(27) 136715. 0.07337 0.07350
66713.16 1.38096 0.0711(26) 149355. 0.07337 0.07349
66719.85 1.38110 0.0689(25) 155325. 0.07336 0.07349
66726.5 1.38124 0.0756(27) 133643. 0.07336 0.07348
66733.16 1.38138 0.0719(26) 145108. 0.07336 0.07348
66739.85 1.38152 0.0716(26) 144831. 0.07335 0.07347
66746.55 1.38165 0.0713(26) 146575. 0.07335 0.07347
66753.2 1.38179 0.0811(28) 123801. 0.07335 0.07346
66759.85 1.38193 0.0784(28) 131389. 0.07334 0.07346
66766.55 1.38207 0.0752(27) 137282. 0.07334 0.07345
66773.25 1.38221 0.0767(27) 133852. 0.07333 0.07345
66779.95 1.38235 0.0774(28) 131554. 0.07333 0.07344
66786.6 1.38248 0.0768(28) 130432. 0.07333 0.07344
66793.25 1.38262 0.0724(26) 142693. 0.07332 0.07343
66799.95 1.38276 0.0724(27) 140802. 0.07332 0.07343
66806.66 1.38290 0.0756(27) 134719. 0.07332 0.07342
66813.3 1.38304 0.0751(27) 137041. 0.07331 0.07342
66819.95 1.38317 0.0716(26) 144789. 0.07331 0.07341
66826.66 1.38331 0.0740(27) 137254. 0.07330 0.07341
66833.35 1.38345 0.0735(27) 139872. 0.07330 0.07340
66840.05 1.38359 0.0743(27) 137402. 0.07330 0.07340
66846.75 1.38373 0.0734(27) 141843. 0.07329 0.07329
66853.45 1.38387 0.0775(28) 129592. 0.07329 0.07329
66860.1 1.38401 0.0776(28) 126435. 0.07329 0.07329
66866.75 1.38414 0.0731(27) 139918. 0.07328 0.07328
66873.45 1.38428 0.0731(27) 139554. 0.07328 0.07328
66880.16 1.38442 0.0758(27) 132810. 0.07328 0.07328
66886.85 1.38456 0.0732(27) 138842. 0.07327 0.07327
66893.55 1.38470 0.0726(27) 138874. 0.07327 0.07327
66900.25 1.38484 0.0757(27) 133330. 0.07326 0.07326
66906.95 1.38498 0.0740(27) 137772. 0.07326 0.07326
66913.66 1.38511 0.0760(28) 132093. 0.07326 0.07326
66920.3 1.38525 0.0786(28) 125563. 0.07325 0.07325
66926.95 1.38539 0.0773(28) 130149. 0.07325 0.07325
66933.66 1.38553 0.0749(27) 136523. 0.07325 0.07325
66940.35 1.38567 0.0745(27) 135582. 0.07324 0.07324
66947.05 1.38581 0.0766(28) 131429. 0.07324 0.07324
66953.75 1.38594 0.0749(27) 136408. 0.07324 0.07324
66960.45 1.38608 0.0787(28) 125989. 0.07323 0.07323
66967.16 1.38622 0.0766(28) 129951. 0.07323 0.07323
66973.85 1.38636 0.0717(27) 139961. 0.07322 0.07322
66980.55 1.38650 0.0737(27) 137194. 0.07322 0.07322
66987.25 1.38664 0.0742(27) 137542. 0.07322 0.07322
66993.95 1.38678 0.0717(26) 142497. 0.07321 0.07321
67000.66 1.38691 0.0721(27) 141173. 0.07321 0.07321
67007.35 1.38705 0.0748(27) 132587. 0.07321 0.07321
67014.05 1.38719 0.0737(27) 136340. 0.07320 0.07320
67020.75 1.38733 0.0822(29) 118411. 0.07320 0.07320
67027.45 1.38747 0.0757(28) 130397. 0.07320 0.07320
67034.16 1.38761 0.0744(27) 133222. 0.07319 0.07319
67040.85 1.38775 0.0792(28) 124639. 0.07319 0.07319
67047.55 1.38789 0.0751(27) 133787. 0.07318 0.07318
67054.25 1.38802 0.0724(27) 138773. 0.07318 0.07318
67060.95 1.38816 0.0759(28) 131804. 0.07318 0.07318
67067.66 1.38830 0.0769(28) 129256. 0.07317 0.07317
67074.35 1.38844 0.0769(28) 129864. 0.07317 0.07317
67081.05 1.38858 0.0757(28) 130729. 0.07317 0.07317
67087.8 1.38872 0.0674(26) 152301. 0.07316 0.07316
67094.55 1.38886 0.0744(27) 135058. 0.07316 0.07316
67101.25 1.38900 0.0774(28) 128904. 0.07316 0.07316
67107.95 1.38914 0.0750(27) 133334. 0.07315 0.07315
67114.66 1.38927 0.0768(28) 129821. 0.07315 0.07315
67121.35 1.38941 0.0781(28) 126636. 0.07315 0.07323
67128.05 1.38955 0.0764(28) 130831. 0.07314 0.07323
67134.75 1.38969 0.0729(27) 140833. 0.07314 0.07323
67141.45 1.38983 0.0754(27) 133011. 0.07313 0.07322
67148.2 1.38997 0.0723(27) 142299. 0.07313 0.07322
67154.95 1.39011 0.0749(28) 132117. 0.07313 0.07322
67161.66 1.39025 0.0721(27) 137165. 0.07312 0.07322
67168.35 1.39039 0.0706(26) 143000. 0.07312 0.07321
67175.05 1.39053 0.0767(28) 130172. 0.07312 0.07321
67181.75 1.39066 0.0715(26) 142600. 0.07311 0.07322
67188.5 1.39080 0.0686(26) 148416. 0.07311 0.07322
67195.25 1.39094 0.0719(27) 140507. 0.07311 0.07322
67201.95 1.39108 0.0769(28) 128748. 0.07310 0.07321
67208.66 1.39122 0.0724(27) 138538. 0.07310 0.07321
67215.35 1.39136 0.0716(27) 141980. 0.07310 0.07331
67222.1 1.39150 0.0706(26) 146903. 0.07309 0.07330
67228.85 1.39164 0.0708(26) 143380. 0.07309 0.07330
67235.55 1.39178 0.0741(27) 133038. 0.07309 0.07341
67242.25 1.39192 0.0689(26) 147504. 0.07308 0.07341
67249.0 1.39206 0.0725(27) 140024. 0.07308 0.07341
67255.75 1.39220 0.0754(27) 132866. 0.07307 0.07341
67262.45 1.39233 0.0723(27) 141007. 0.07307 0.07341
67269.16 1.39247 0.0737(27) 135508. 0.07307 0.07341
67275.91 1.39261 0.0687(26) 151349. 0.07306 0.07341
67282.66 1.39275 0.0701(26) 144637. 0.07306 0.07341
67289.35 1.39289 0.0737(27) 136437. 0.07306 0.07341
67296.05 1.39303 0.0737(27) 139623. 0.07305 0.07341
67302.8 1.39317 0.0751(27) 136368. 0.07305 0.07341
67309.55 1.39331 0.0702(26) 145522. 0.07305 0.07341
67316.25 1.39345 0.0685(26) 152928. 0.07304 0.07342
67323.0 1.39359 0.0715(26) 145114. 0.07304 0.07342
67329.75 1.39373 0.0707(26) 145665. 0.07304 0.07342
67336.45 1.39387 0.0695(26) 152019. 0.07303 0.07342
67343.2 1.39401 0.0760(27) 136427. 0.07303 0.07342
67349.95 1.39415 0.0749(27) 137465. 0.07303 0.07342
67356.66 1.39428 0.0747(27) 136124. 0.07302 0.07343
67363.41 1.39442 0.0712(26) 148027. 0.07302 0.07343
67370.16 1.39456 0.0712(26) 144969. 0.07302 0.07343
67376.91 1.39470 0.0706(26) 147277. 0.07301 0.07343
67383.66 1.39484 0.0691(26) 149695. 0.07301 0.07343
67390.35 1.39498 0.0714(26) 143841. 0.07300 0.07344
67397.1 1.39512 0.0727(27) 142282. 0.07300 0.07344
67403.85 1.39526 0.0746(27) 137360. 0.07300 0.07344
67410.55 1.39540 0.0727(26) 142460. 0.07299 0.07344
67417.3 1.39554 0.0718(26) 147264. 0.07299 0.07345
67424.05 1.39568 0.0737(27) 139819. 0.07299 0.07345
67430.8 1.39582 0.0686(26) 151371. 0.07298 0.07345
67437.55 1.39596 0.0713(27) 140990. 0.07298 0.07346
67444.3 1.39610 0.0719(26) 142810. 0.07298 0.07346
67451.05 1.39624 0.0749(27) 137283. 0.07297 0.07346
67457.75 1.39638 0.0754(27) 136551. 0.07297 0.07347
67464.5 1.39652 0.0770(28) 131860. 0.07297 0.07347
67471.25 1.39666 0.0728(27) 139679. 0.07296 0.07348
67478.0 1.39680 0.0674(25) 153864. 0.07296 0.07348
67484.75 1.39694 0.0723(27) 140962. 0.07296 0.07348
67491.5 1.39708 0.0731(26) 143286. 0.07295 0.07349
67498.25 1.39722 0.0746(27) 137600. 0.07295 0.07349
67505.0 1.39736 0.0723(26) 142862. 0.07295 0.07350
67511.75 1.39750 0.0714(26) 144023. 0.07294 0.07350
67518.5 1.39764 0.0736(27) 138552. 0.07294 0.07351
67525.25 1.39778 0.0694(26) 147305. 0.07294 0.07352
67532.0 1.39791 0.0686(26) 150058. 0.07293 0.07352
67538.75 1.39805 0.0716(27) 141257. 0.07293 0.07353
67545.5 1.39819 0.0723(27) 141708. 0.07293 0.07353
67552.3 1.39834 0.0710(26) 146183. 0.07292 0.07354
67559.05 1.39847 0.0713(27) 141199. 0.07292 0.07355
67565.8 1.39861 0.0726(27) 141215. 0.07292 0.07356
67572.55 1.39875 0.0767(27) 133187. 0.07291 0.07356
67579.3 1.39889 0.0769(28) 131865. 0.07291 0.07357
67586.05 1.39903 0.0718(27) 141744. 0.07291 0.07358
67592.8 1.39917 0.0715(27) 142054. 0.07290 0.07359
67599.6 1.39931 0.0722(27) 140148. 0.07290 0.07360
67606.35 1.39945 0.0737(27) 136041. 0.07290 0.07360
67613.1 1.39959 0.0728(27) 138673. 0.07289 0.07361
67619.91 1.39973 0.0756(28) 131095. 0.07289 0.07362
67626.66 1.39987 0.0723(27) 140445. 0.07288 0.07363
67633.41 1.40001 0.0741(27) 136326. 0.07288 0.07364
67640.16 1.40015 0.0745(27) 133863. 0.07288 0.07366
67646.91 1.40029 0.0718(27) 141425. 0.07287 0.07367
67653.7 1.40043 0.0741(27) 136945. 0.07287 0.07368
67660.45 1.40057 0.0776(28) 127786. 0.07287 0.07369
67667.2 1.40071 0.0729(27) 137672. 0.07286 0.07370
67674.0 1.40085 0.0699(26) 146725. 0.07286 0.07372
67680.75 1.40099 0.0734(27) 135407. 0.07286 0.07373
67687.5 1.40113 0.0714(27) 141721. 0.07285 0.07374
67694.3 1.40127 0.0729(27) 137972. 0.07285 0.07376
67701.05 1.40141 0.0796(29) 122461. 0.07285 0.07377
67707.8 1.40155 0.0751(27) 135063. 0.07284 0.07379
67714.6 1.40170 0.0771(28) 126291. 0.07284 0.07381
67721.41 1.40184 0.0742(27) 134591. 0.07284 0.07382
67728.16 1.40198 0.0753(28) 130394. 0.07283 0.07384
67734.91 1.40212 0.0761(28) 129804. 0.07283 0.07386
67741.7 1.40226 0.0774(28) 130805. 0.07283 0.07388
67748.45 1.40240 0.0805(29) 123054. 0.07282 0.07390
67755.2 1.40254 0.0772(28) 130878. 0.07282 0.07392
67762.0 1.40268 0.0765(28) 131712. 0.07282 0.07394
67768.8 1.40282 0.0760(27) 132408. 0.07281 0.07396
67775.55 1.40296 0.0770(28) 129691. 0.07281 0.07399
67782.3 1.40310 0.0752(27) 134866. 0.07281 0.07401
67789.1 1.40324 0.0782(28) 124771. 0.07280 0.07403
67795.91 1.40338 0.0762(28) 130876. 0.07280 0.07406
67802.7 1.40352 0.0790(29) 122891. 0.07280 0.07409
67809.45 1.40366 0.0773(28) 124203. 0.07279 0.07412
67816.2 1.40380 0.0734(27) 135204. 0.07279 0.07415
67823.0 1.40394 0.0740(27) 134499. 0.07279 0.07418
67829.8 1.40408 0.0776(28) 126084. 0.07278 0.07421
67836.6 1.40422 0.0780(28) 125481. 0.07278 0.07424
67843.41 1.40436 0.0778(28) 129641. 0.07278 0.07428
67850.16 1.40450 0.0786(28) 125731. 0.07278 0.07432
67856.91 1.40464 0.0789(28) 125006. 0.07277 0.07435
67863.7 1.40478 0.0791(28) 126061. 0.07277 0.07439
67870.5 1.40492 0.0742(27) 136361. 0.07277 0.07444
67877.3 1.40506 0.0707(26) 143262. 0.07276 0.07448
67884.1 1.40520 0.0756(28) 132158. 0.07276 0.07453
67890.91 1.40535 0.0739(27) 137998. 0.07276 0.07457
67897.7 1.40549 0.0778(28) 128570. 0.07275 0.07462
67904.45 1.40563 0.0774(28) 129070. 0.07275 0.07468
67911.2 1.40577 0.0739(27) 137003. 0.07275 0.07473
67918.0 1.40591 0.0729(27) 140459. 0.07274 0.07479
67924.8 1.40605 0.0748(27) 134479. 0.07274 0.07485
67931.6 1.40619 0.0789(28) 125637. 0.07274 0.07492
67938.41 1.40633 0.0785(28) 128814. 0.07273 0.07498
67945.2 1.40647 0.0731(27) 141787. 0.07273 0.07505
67952.0 1.40661 0.0746(27) 136946. 0.07273 0.07513
67958.8 1.40675 0.0791(28) 126262. 0.07272 0.07521
67965.6 1.40689 0.0764(27) 134573. 0.07272 0.07529
67972.41 1.40703 0.0797(28) 126388. 0.07272 0.07538
67979.2 1.40717 0.0767(28) 131016. 0.07271 0.07547
67986.0 1.40731 0.0732(27) 141511. 0.07271 0.07557
67992.8 1.40745 0.0790(28) 127488. 0.07271 0.07568
67999.6 1.40760 0.0768(28) 130542. 0.07270 0.07579
68006.41 1.40774 0.0766(27) 132640. 0.07270 0.07591
68013.2 1.40788 0.0748(27) 136897. 0.07270 0.07603
68020.0 1.40802 0.0774(28) 128135. 0.07269 0.07617
68026.8 1.40816 0.0790(28) 124686. 0.07269 0.07631
68033.6 1.40830 0.0754(27) 133411. 0.07269 0.07646
68040.41 1.40844 0.0784(28) 127745. 0.07268 0.07663
68047.2 1.40858 0.0827(29) 120544. 0.07268 0.07680
68054.0 1.40872 0.0809(29) 122621. 0.07268 0.07699
68060.8 1.40886 0.0779(28) 128018. 0.07267 0.07719
68067.6 1.40900 0.0824(29) 120305. 0.07267 0.07740
68074.41 1.40914 0.0778(28) 129433. 0.07267 0.07764
68081.2 1.40928 0.0753(27) 134199. 0.07267 0.07789
68088.0 1.40943 0.0811(29) 122127. 0.07266 0.07816
68094.8 1.40957 0.0779(28) 127745. 0.07266 0.07846
68101.66 1.40971 0.0742(27) 139288. 0.07266 0.07878
68108.5 1.40985 0.0805(28) 123602. 0.07265 0.07913
68115.3 1.40999 0.0787(28) 129795. 0.07265 0.07952
68122.1 1.41013 0.0805(28) 127846. 0.07265 0.07994
68128.91 1.41027 0.0770(27) 134910. 0.07264 0.08041
68135.7 1.41041 0.0826(29) 122002. 0.07264 0.08093
68142.5 1.41055 0.0852(29) 117687. 0.07264 0.08150
68149.3 1.41069 0.0789(28) 130673. 0.07263 0.08215
68156.16 1.41084 0.0844(29) 120007. 0.07263 0.08290
68163.0 1.41098 0.0822(28) 125716. 0.07263 0.08376
68169.8 1.41112 0.0854(29) 118879. 0.07262 0.08476
68176.6 1.41126 0.0856(29) 118197. 0.07262 0.08595
68183.41 1.41140 0.0840(29) 122301. 0.07262 0.08738
68190.2 1.41154 0.0906(30) 110960. 0.07261 0.08914
68197.05 1.41168 0.0937(30) 107539. 0.07261 0.09132
68203.91 1.41182 0.0968(31) 103997. 0.07261 0.09405
68210.7 1.41197 0.1045(33) 94606. 0.07261 0.09740
68217.5 1.41211 0.1100(34) 88386. 0.07260 0.10153
68224.3 1.41225 0.1090(33) 91082. 0.07260 0.10657
68231.16 1.41239 0.1125(33) 89551. 0.07260 0.11268
68238.0 1.41253 0.130(4) 73632. 0.0726 0.1199
68244.8 1.41267 0.134(4) 71076. 0.0726 0.1281
68251.6 1.41281 0.137(4) 71078. 0.0726 0.1373
68258.45 1.41295 0.149(4) 63868. 0.0726 0.1472
68265.3 1.41310 0.151(4) 62995. 0.0726 0.1574
68272.1 1.41324 0.160(4) 58689. 0.0726 0.1672
68278.95 1.41338 0.175(4) 53351. 0.0726 0.1759
68285.8 1.41352 0.180(4) 50570. 0.0726 0.1830
68292.6 1.41366 0.181(4) 50625. 0.0726 0.1883
68299.41 1.41380 0.183(4) 50092. 0.0726 0.1921
68306.25 1.41394 0.177(4) 53173. 0.0726 0.1948
68313.1 1.41409 0.186(5) 49372. 0.0726 0.1972
68319.91 1.41423 0.188(5) 48735. 0.0726 0.1999
68326.75 1.41437 0.188(4) 49496. 0.0726 0.2036
68333.6 1.41451 0.199(5) 46038. 0.0725 0.2087
68340.41 1.41465 0.205(5) 44622. 0.0725 0.2157
68347.25 1.41479 0.212(5) 43145. 0.0725 0.2246
68354.1 1.41493 0.224(5) 40056. 0.0725 0.2356
68360.91 1.41508 0.239(5) 37199. 0.0725 0.2481
68367.75 1.41522 0.247(5) 36383. 0.0725 0.2616
68374.6 1.41536 0.269(6) 32298. 0.0725 0.2748
68381.41 1.41550 0.275(6) 31655. 0.0725 0.2865
68388.25 1.41564 0.290(6) 30262. 0.0725 0.2954
68395.1 1.41578 0.309(6) 27487. 0.0725 0.3003
68401.95 1.41592 0.300(6) 28906. 0.0725 0.3008
68408.8 1.41607 0.297(6) 28864. 0.0725 0.2966
68415.6 1.41621 0.285(6) 30397. 0.0725 0.2883
68422.45 1.41635 0.281(6) 31183. 0.0725 0.2765
68429.3 1.41649 0.275(6) 31839. 0.0725 0.2623
68436.16 1.41663 0.245(5) 37226. 0.0725 0.2466
68443.0 1.41677 0.239(5) 37445. 0.0725 0.2303
68449.85 1.41692 0.222(5) 41310. 0.0725 0.2141
68456.7 1.41706 0.199(5) 46166. 0.0725 0.1985
68463.5 1.41720 0.179(4) 51554. 0.0725 0.1840
68470.35 1.41734 0.164(4) 57968. 0.0725 0.1706
68477.2 1.41748 0.157(4) 59406. 0.0725 0.1585
68484.05 1.41762 0.145(4) 65247. 0.0725 0.1478
68490.91 1.41777 0.135(4) 69735. 0.0725 0.1383
68497.75 1.41791 0.124(4) 78656. 0.0725 0.1301
68504.6 1.41805 0.125(4) 75700. 0.0725 0.1230
68511.45 1.41819 0.1123(34) 86618. 0.07247 0.11682
68518.3 1.41833 0.1081(33) 89317. 0.07247 0.11152
68525.16 1.41848 0.1025(32) 95702. 0.07246 0.10695
68532.0 1.41862 0.1026(33) 93220. 0.07246 0.10303
68538.85 1.41876 0.1004(32) 96922. 0.07246 0.09965
68545.7 1.41890 0.1055(33) 90210. 0.07246 0.09673
68552.55 1.41904 0.1012(32) 96994. 0.07245 0.09422
68559.45 1.41919 0.0964(31) 102119. 0.07245 0.09202
68566.3 1.41933 0.0923(31) 105894. 0.07245 0.09012
68573.16 1.41947 0.0897(30) 109127. 0.07244 0.08847
68580.0 1.41961 0.0896(31) 107444. 0.07244 0.08703
68586.85 1.41975 0.0852(29) 116659. 0.07244 0.08576
68593.7 1.41989 0.0862(30) 112680. 0.07244 0.08465
68600.55 1.42004 0.0864(30) 111579. 0.07243 0.08367
68607.45 1.42018 0.0822(29) 120771. 0.07243 0.08279
68614.3 1.42032 0.0853(30) 114752. 0.07243 0.08202
68621.16 1.42046 0.0875(30) 112448. 0.07242 0.08134
68628.05 1.42061 0.0849(29) 117296. 0.07242 0.08072
68634.91 1.42075 0.0834(29) 120079. 0.07242 0.08017
68641.75 1.42089 0.0805(28) 126160. 0.07241 0.07967
68648.6 1.42103 0.0783(28) 128790. 0.07241 0.07922
68655.45 1.42117 0.0795(28) 126952. 0.07241 0.07882
68662.35 1.42132 0.0768(28) 132193. 0.07241 0.07844
68669.2 1.42146 0.0775(28) 129094. 0.07240 0.07811
68676.05 1.42160 0.0779(28) 130870. 0.07240 0.07780
68682.95 1.42174 0.0825(29) 120702. 0.07240 0.07751
68689.85 1.42189 0.0754(27) 136518. 0.07239 0.07725
68696.7 1.42203 0.0806(29) 121877. 0.07239 0.07701
68703.55 1.42217 0.0768(28) 131886. 0.07239 0.07679
68710.45 1.42231 0.0776(28) 127920. 0.07239 0.07658
68717.3 1.42245 0.0762(28) 129327. 0.07238 0.07639
68724.16 1.42260 0.0727(27) 140483. 0.07238 0.07621
68731.05 1.42274 0.0753(27) 134185. 0.07238 0.07604
68737.95 1.42288 0.0710(26) 144764. 0.07237 0.07589
68744.8 1.42302 0.0756(27) 132694. 0.07237 0.07574
68751.66 1.42316 0.0777(28) 128124. 0.07237 0.07561
68758.55 1.42331 0.0768(28) 128955. 0.07237 0.07548
68765.45 1.42345 0.0757(27) 132380. 0.07236 0.07535
68772.3 1.42359 0.0774(28) 126559. 0.07236 0.07524
68779.16 1.42373 0.0784(28) 124741. 0.07236 0.07513
68786.05 1.42388 0.0731(27) 136687. 0.07235 0.07503
68792.95 1.42402 0.0763(28) 129913. 0.07235 0.07493
68799.8 1.42416 0.0824(29) 118194. 0.07235 0.07484
68806.66 1.42430 0.0818(29) 119364. 0.07235 0.07476
68813.55 1.42445 0.0745(27) 135181. 0.07234 0.07467
68820.45 1.42459 0.0731(27) 135704. 0.07234 0.07459
68827.35 1.42473 0.0727(27) 135469. 0.07234 0.07452
68834.2 1.42487 0.0749(28) 131200. 0.07233 0.07445
68841.05 1.42502 0.0764(28) 131450. 0.07233 0.07438
68847.95 1.42516 0.0771(28) 130720. 0.07233 0.07431
68854.85 1.42530 0.0769(28) 128717. 0.07233 0.07425
68861.75 1.42544 0.0746(27) 132802. 0.07232 0.07419
68868.66 1.42559 0.0711(26) 143091. 0.07232 0.07413
68875.55 1.42573 0.0719(27) 140993. 0.07232 0.07409
68882.45 1.42587 0.0760(28) 131688. 0.07231 0.07404
68889.3 1.42601 0.0749(28) 131875. 0.07231 0.07399
68896.16 1.42616 0.0748(27) 132629. 0.07231 0.07394
68903.05 1.42630 0.0715(27) 141049. 0.07231 0.07389
68909.95 1.42644 0.0739(27) 133791. 0.07230 0.07385
68916.85 1.42658 0.0778(28) 128940. 0.07230 0.07380
68923.75 1.42673 0.0767(28) 132098. 0.07230 0.07376
68930.66 1.42687 0.0769(27) 132546. 0.07229 0.07373
68937.55 1.42701 0.0786(28) 126147. 0.07229 0.07369
68944.45 1.42716 0.0728(27) 137278. 0.07229 0.07365
68951.35 1.42730 0.0770(28) 128806. 0.07229 0.07362
68958.25 1.42744 0.0729(27) 136412. 0.07228 0.07359
68965.16 1.42758 0.0671(26) 151993. 0.07228 0.07356
68972.05 1.42773 0.0774(28) 128743. 0.07228 0.07353
68978.95 1.42787 0.0798(28) 125748. 0.07228 0.07350
68985.85 1.42801 0.0813(29) 121535. 0.07227 0.07347
68992.7 1.42815 0.0795(29) 121367. 0.07227 0.07344
68999.55 1.42830 0.0739(27) 133395. 0.07227 0.07341
69006.5 1.42844 0.0745(27) 134671. 0.07226 0.07338
69013.45 1.42858 0.0790(29) 122528. 0.07226 0.07336
69020.35 1.42873 0.0717(27) 138479. 0.07226 0.07333
69027.25 1.42887 0.0741(27) 132363. 0.07226 0.07331
69034.16 1.42901 0.0722(27) 138441. 0.07225 0.07328
69041.05 1.42916 0.0748(28) 131301. 0.07225 0.07326
69047.95 1.42930 0.0775(28) 126307. 0.07225 0.07324
69054.85 1.42944 0.0760(28) 130873. 0.07225 0.07321
69061.75 1.42958 0.0765(28) 128179. 0.07224 0.07319
69068.66 1.42973 0.0731(27) 136227. 0.07224 0.07317
69075.55 1.42987 0.0772(28) 126151. 0.07224 0.07315
69082.45 1.43001 0.0738(27) 132709. 0.07223 0.07313
69089.35 1.43016 0.0770(28) 125393. 0.07223 0.07311
69096.25 1.43030 0.0777(28) 125599. 0.07223 0.07309
69103.16 1.43044 0.0784(29) 122474. 0.07223 0.07308
69110.05 1.43058 0.0688(26) 144003. 0.07222 0.07306
69116.95 1.43073 0.0701(27) 140976. 0.07222 0.07304
69123.9 1.43087 0.0692(26) 145250. 0.07222 0.07302
69130.85 1.43101 0.0695(27) 141316. 0.07222 0.07301
69137.75 1.43116 0.0765(28) 128511. 0.07221 0.07299
69144.66 1.43130 0.0786(28) 126197. 0.07221 0.07298
69151.55 1.43144 0.0735(27) 135608. 0.07221 0.07296
69158.45 1.43159 0.0703(26) 144288. 0.07221 0.07295
69165.35 1.43173 0.0734(27) 134690. 0.07220 0.07293
69172.3 1.43187 0.0684(26) 149371. 0.07220 0.07292
69179.25 1.43202 0.0725(27) 137068. 0.07220 0.07290
69186.16 1.43216 0.0712(27) 142179. 0.07219 0.07289
69193.05 1.43230 0.0750(27) 132888. 0.07219 0.07288
69199.95 1.43245 0.0713(27) 140923. 0.07219 0.07286
69206.9 1.43259 0.0721(27) 138706. 0.07219 0.07285
69213.85 1.43273 0.0719(27) 140352. 0.07218 0.07284
69220.75 1.43288 0.0741(27) 135432. 0.07218 0.07283
69227.66 1.43302 0.0767(28) 130810. 0.07218 0.07281
69234.55 1.43316 0.0739(27) 136360. 0.07218 0.07280
69241.5 1.43331 0.0712(26) 143352. 0.07217 0.07279
69248.45 1.43345 0.0775(28) 127530. 0.07217 0.07278
69255.35 1.43359 0.0730(27) 139673. 0.07217 0.07277
69262.3 1.43374 0.0725(27) 140182. 0.07217 0.07276
69269.25 1.43388 0.0768(28) 129142. 0.07216 0.07275
69276.16 1.43402 0.0746(27) 134480. 0.07216 0.07274
69283.05 1.43417 0.0774(28) 126090. 0.07216 0.07273
69290.0 1.43431 0.0721(27) 140103. 0.07216 0.07272
69296.95 1.43445 0.0751(28) 131692. 0.07215 0.07271
69303.85 1.43460 0.0776(28) 126512. 0.07215 0.07270
69310.8 1.43474 0.0748(27) 134435. 0.07215 0.07269
69317.75 1.43488 0.0739(27) 134650. 0.07214 0.07268
69324.66 1.43503 0.0673(26) 151224. 0.07214 0.07267
69331.55 1.43517 0.0752(28) 129488. 0.07214 0.07267
69338.5 1.43531 0.0761(27) 132264. 0.07214 0.07266
69345.45 1.43546 0.0743(27) 134986. 0.07213 0.07265
69352.35 1.43560 0.0764(28) 129282. 0.07213 0.07264
69359.3 1.43574 0.0754(28) 132177. 0.07213 0.07263
69366.25 1.43589 0.0731(27) 136002. 0.07213 0.07263
69373.2 1.43603 0.0709(26) 143481. 0.07212 0.07262
69380.16 1.43618 0.0689(26) 145973. 0.07212 0.07261
69387.05 1.43632 0.0696(26) 143774. 0.07212 0.07260
69394.0 1.43646 0.0684(26) 149395. 0.07212 0.07260
69400.95 1.43661 0.0675(26) 151237. 0.07211 0.07259
69407.9 1.43675 0.0693(26) 148546. 0.07211 0.07258
69414.85 1.43689 0.0746(27) 134255. 0.07211 0.07258
69421.75 1.43704 0.0766(28) 129288. 0.07211 0.07257
69428.7 1.43718 0.0745(27) 136445. 0.07210 0.07256
69435.66 1.43732 0.0731(27) 136530. 0.07210 0.07256
69442.6 1.43747 0.0727(27) 138710. 0.07210 0.07255
69449.55 1.43761 0.0765(28) 131343. 0.07210 0.07255
69456.45 1.43776 0.0755(28) 130251. 0.07209 0.07254
69463.4 1.43790 0.0767(28) 127060. 0.07209 0.07253
69470.35 1.43804 0.0775(28) 125667. 0.07209 0.07253
69477.3 1.43819 0.0731(27) 136346. 0.07209 0.07252
69484.25 1.43833 0.0715(27) 137686. 0.07208 0.07252
69491.2 1.43847 0.0691(27) 142161. 0.07208 0.07251
69498.16 1.43862 0.0705(27) 138780. 0.07208 0.07251
69505.1 1.43876 0.0708(27) 141649. 0.07208 0.07250
69512.05 1.43891 0.0721(27) 135151. 0.07207 0.07250
69519.0 1.43905 0.0710(27) 139780. 0.07207 0.07250
69526.0 1.43920 0.0717(27) 139987. 0.07207 0.07241
69532.95 1.43934 0.0737(28) 131091. 0.07207 0.07241
69539.9 1.43948 0.0718(27) 137215. 0.07206 0.07240
69546.85 1.43963 0.0754(28) 128979. 0.07206 0.07240
69553.8 1.43977 0.0751(28) 129744. 0.07206 0.07240
69560.75 1.43991 0.0783(29) 122744. 0.07206 0.07240
69567.7 1.44006 0.0759(28) 129988. 0.07205 0.07239
69574.66 1.44020 0.0758(28) 127227. 0.07205 0.07239
69581.6 1.44035 0.0762(28) 129894. 0.07205 0.07239
69588.55 1.44049 0.0782(28) 126049. 0.07205 0.07238
69595.5 1.44063 0.0736(27) 137584. 0.07204 0.07237
69602.5 1.44078 0.0748(27) 132893. 0.07204 0.07237
69609.45 1.44092 0.0698(26) 145162. 0.07204 0.07237
69616.4 1.44107 0.0701(26) 145192. 0.07204 0.07237
69623.35 1.44121 0.0703(26) 142632. 0.07204 0.07237
69630.3 1.44135 0.0736(27) 138475. 0.07203 0.07228
69637.3 1.44150 0.0737(27) 138087. 0.07203 0.07228
69644.25 1.44164 0.0702(26) 144353. 0.07203 0.07218
69651.2 1.44179 0.0721(27) 142225. 0.07203 0.07218
69658.2 1.44193 0.0706(26) 146296. 0.07202 0.07218
69665.16 1.44208 0.0716(27) 139967. 0.07202 0.07219
69672.1 1.44222 0.0700(26) 144380. 0.07202 0.07219
69679.1 1.44236 0.0686(26) 147738. 0.07202 0.07219
69686.05 1.44251 0.0707(27) 141671. 0.07201 0.07219
69693.0 1.44265 0.0730(27) 138447. 0.07201 0.07220
69700.0 1.44280 0.0710(26) 143370. 0.07201 0.07220
69706.95 1.44294 0.0689(26) 145220. 0.07201 0.07220
69713.9 1.44308 0.0685(26) 148990. 0.07200 0.07220
69720.9 1.44323 0.0714(27) 142348. 0.07200 0.07221
69727.9 1.44337 0.0747(27) 133238. 0.07200 0.07221
69734.85 1.44352 0.0714(27) 140099. 0.07200 0.07222
69741.8 1.44366 0.0675(26) 152814. 0.07199 0.07222
69748.8 1.44381 0.0690(26) 147927. 0.07199 0.07223
69755.8 1.44395 0.0717(27) 142297. 0.07199 0.07223
69762.75 1.44410 0.0760(28) 130727. 0.07199 0.07224
69769.7 1.44424 0.0758(28) 131761. 0.07199 0.07224
69776.7 1.44439 0.0712(26) 143724. 0.07198 0.07225
69783.7 1.44453 0.0723(27) 138036. 0.07198 0.07226
69790.66 1.44467 0.0701(27) 142012. 0.07198 0.07227
69797.6 1.44482 0.0695(26) 146262. 0.07198 0.07228
69804.6 1.44496 0.0737(27) 138486. 0.07197 0.07228
69811.6 1.44511 0.0743(27) 136879. 0.07197 0.07229
69818.6 1.44525 0.0712(26) 143854. 0.07197 0.07230
69825.55 1.44540 0.0716(27) 141928. 0.07197 0.07232
69832.5 1.44554 0.0725(27) 140765. 0.07196 0.07233
69839.5 1.44569 0.0750(27) 135669. 0.07196 0.07234
69846.5 1.44583 0.0756(27) 135083. 0.07196 0.07236
69853.5 1.44598 0.0694(26) 149771. 0.07196 0.07237
69860.5 1.44612 0.0723(27) 141402. 0.07196 0.07239
69867.5 1.44626 0.0721(27) 140897. 0.07195 0.07240
69874.45 1.44641 0.0680(26) 147732. 0.07195 0.07242
69881.4 1.44655 0.0724(27) 138303. 0.07195 0.07244
69888.4 1.44670 0.0734(27) 137731. 0.07195 0.07247
69895.4 1.44684 0.0721(27) 140779. 0.07194 0.07249
69902.4 1.44699 0.0716(27) 142308. 0.07194 0.07252
69909.4 1.44713 0.0748(27) 133989. 0.07194 0.07255
69916.4 1.44728 0.0713(27) 141416. 0.07194 0.07258
69923.4 1.44742 0.0692(26) 147852. 0.07194 0.07261
69930.4 1.44757 0.0765(28) 129015. 0.07193 0.07265
69937.4 1.44771 0.0792(28) 123433. 0.07193 0.07269
69944.4 1.44786 0.0773(28) 129662. 0.07193 0.07274
69951.4 1.44800 0.0754(27) 132347. 0.07193 0.07279
69958.35 1.44815 0.0761(28) 126955. 0.07192 0.07285
69965.3 1.44829 0.0758(28) 128608. 0.07192 0.07291
69972.3 1.44843 0.0769(28) 126368. 0.07192 0.07298
69979.3 1.44858 0.0742(27) 133748. 0.07192 0.07306
69986.3 1.44872 0.0786(28) 124403. 0.07192 0.07315
69993.3 1.44887 0.0755(28) 130310. 0.07191 0.07326
70000.3 1.44901 0.0767(28) 126982. 0.07191 0.07338
70007.3 1.44916 0.0774(28) 125125. 0.07191 0.07353
70014.3 1.44930 0.0730(27) 134604. 0.07191 0.07371
70021.3 1.44945 0.0771(28) 127046. 0.07190 0.07393
70028.3 1.44959 0.0797(29) 121999. 0.07190 0.07420
70035.3 1.44974 0.0738(27) 132825. 0.07190 0.07453
70042.3 1.44988 0.0744(28) 131468. 0.07190 0.07495
70049.35 1.45003 0.0802(29) 121819. 0.07190 0.07547
70056.4 1.45018 0.0769(28) 128413. 0.07189 0.07611
70063.4 1.45032 0.0799(28) 123313. 0.07189 0.07688
70070.4 1.45047 0.0808(29) 122972. 0.07189 0.07778
70077.4 1.45061 0.0794(28) 125969. 0.07189 0.07884
70084.4 1.45076 0.0795(28) 127559. 0.07188 0.08004
70091.4 1.45090 0.0820(29) 121579. 0.07188 0.08137
70098.4 1.45104 0.0820(29) 121480. 0.07188 0.08276
70105.4 1.45119 0.0789(28) 129940. 0.07188 0.08418
70112.4 1.45133 0.0877(30) 114315. 0.07188 0.08554
70119.4 1.45148 0.0904(30) 110315. 0.07187 0.08679
70126.45 1.45163 0.0837(29) 122532. 0.07187 0.08794
70133.5 1.45177 0.0898(30) 110095. 0.07187 0.08899
70140.5 1.45192 0.0837(29) 120671. 0.07187 0.08998
70147.5 1.45206 0.0860(30) 114816. 0.07187 0.09095
70154.5 1.45221 0.0903(30) 109172. 0.07186 0.09191
70161.5 1.45235 0.0845(29) 119698. 0.07186 0.09286
70168.5 1.45250 0.0924(31) 104621. 0.07186 0.09376
70175.5 1.45264 0.0928(31) 106936. 0.07186 0.09456
70182.55 1.45279 0.0910(30) 112058. 0.07185 0.09521
70189.6 1.45293 0.0952(31) 104869. 0.07185 0.09562
70196.6 1.45308 0.0936(31) 106444. 0.07185 0.09572
70203.6 1.45322 0.0930(31) 104781. 0.07185 0.09544
70210.6 1.45337 0.0932(31) 105566. 0.07185 0.09478
70217.66 1.45351 0.0942(31) 105813. 0.07184 0.09374
70224.7 1.45366 0.0918(30) 108443. 0.07184 0.09242
70231.7 1.45380 0.0979(32) 98460. 0.07184 0.09090
70238.7 1.45395 0.0946(31) 103800. 0.07184 0.08927
70245.75 1.45410 0.0853(29) 118956. 0.07184 0.08758
70252.8 1.45424 0.0872(30) 113290. 0.07183 0.08592
70259.8 1.45439 0.0853(29) 117369. 0.07183 0.08435
70266.8 1.45453 0.0858(29) 114968. 0.07183 0.08288
70273.85 1.45468 0.0795(28) 128648. 0.07183 0.08153
70280.9 1.45482 0.0814(28) 123305. 0.07183 0.08032
70287.9 1.45497 0.0811(28) 123552. 0.07182 0.07925
70294.9 1.45511 0.0781(28) 129422. 0.07182 0.07831
70301.95 1.45526 0.0745(27) 137271. 0.07182 0.07749
70309.0 1.45540 0.0765(28) 130660. 0.07182 0.07678
70316.0 1.45555 0.0754(27) 134550. 0.07182 0.07618
70323.05 1.45570 0.0723(26) 143964. 0.07181 0.07565
70330.1 1.45584 0.0755(27) 133812. 0.07181 0.07520
70337.1 1.45599 0.0754(27) 135931. 0.07181 0.07482
70344.16 1.45613 0.0756(27) 135403. 0.07181 0.07448
70351.2 1.45628 0.0752(27) 134672. 0.07181 0.07419
70358.2 1.45642 0.0736(27) 138435. 0.07180 0.07395
70365.25 1.45657 0.0739(27) 136967. 0.07180 0.07373
70372.3 1.45672 0.0745(27) 136195. 0.07180 0.07354
70379.35 1.45686 0.0723(27) 141436. 0.07180 0.07338
70386.4 1.45701 0.0702(26) 142760. 0.07180 0.07324
70393.4 1.45715 0.0729(27) 135934. 0.07179 0.07311
70400.45 1.45730 0.0711(26) 143532. 0.07179 0.07300
70407.5 1.45744 0.0776(28) 127983. 0.07179 0.07291
70414.55 1.45759 0.0755(27) 133781. 0.07179 0.07282
70421.6 1.45774 0.0746(27) 134582. 0.07179 0.07274
70428.6 1.45788 0.0716(27) 142230. 0.07178 0.07267
70435.66 1.45803 0.0736(27) 135962. 0.07178 0.07261
70442.7 1.45817 0.0753(27) 133201. 0.07178 0.07255
70449.75 1.45832 0.0775(28) 128343. 0.07178 0.07250
70456.8 1.45846 0.0766(28) 128046. 0.07178 0.07246
70463.85 1.45861 0.0764(28) 129194. 0.07177 0.07242
70470.9 1.45876 0.0760(28) 128617. 0.07177 0.07238
70477.95 1.45890 0.0694(26) 146611. 0.07177 0.07234
70485.0 1.45905 0.0789(29) 122308. 0.07177 0.07231
70492.05 1.45919 0.0743(27) 134783. 0.07177 0.07228
70499.1 1.45934 0.0718(27) 139584. 0.07176 0.07225
70506.16 1.45949 0.0748(27) 135962. 0.07176 0.07223
70513.2 1.45963 0.0770(28) 130803. 0.07176 0.07220
70520.25 1.45978 0.0764(27) 132694. 0.07176 0.07218
70527.3 1.45992 0.0744(27) 136613. 0.07176 0.07216
70534.35 1.46007 0.0723(27) 142215. 0.07176 0.07214
70541.4 1.46022 0.0709(26) 144021. 0.07175 0.07212
70548.45 1.46036 0.0696(26) 147388. 0.07175 0.07211
70555.5 1.46051 0.0696(26) 144856. 0.07175 0.07209
70562.55 1.46065 0.0683(26) 149653. 0.07175 0.07207
70569.6 1.46080 0.0722(27) 139976. 0.07175 0.07206
70576.66 1.46095 0.0750(27) 134884. 0.07174 0.07205
70583.75 1.46109 0.0743(27) 136207. 0.07174 0.07203
70590.8 1.46124 0.0769(28) 130345. 0.07174 0.07202
70597.85 1.46138 0.0756(27) 134418. 0.07174 0.07201
70604.9 1.46153 0.0745(27) 135928. 0.07174 0.07200
70611.95 1.46168 0.0722(27) 141120. 0.07173 0.07199
70619.0 1.46182 0.0706(26) 143195. 0.07173 0.07198
70626.05 1.46197 0.0720(27) 141091. 0.07173 0.07197
70633.16 1.46212 0.0726(27) 140086. 0.07173 0.07196
70640.2 1.46226 0.0722(27) 137941. 0.07173 0.07195
70647.25 1.46241 0.0679(26) 151207. 0.07173 0.07194
70654.35 1.46255 0.0734(27) 137657. 0.07172 0.07193
70661.4 1.46270 0.0719(27) 141291. 0.07172 0.07192
70668.45 1.46285 0.0717(26) 142629. 0.07172 0.07191
70675.55 1.46299 0.0739(27) 135477. 0.07172 0.07191
70682.6 1.46314 0.0732(27) 137490. 0.07172 0.07190
70689.66 1.46329 0.0732(27) 140557. 0.07171 0.07189
70696.75 1.46343 0.0739(27) 138916. 0.07171 0.07189
70703.8 1.46358 0.0736(27) 136423. 0.07171 0.07188
70710.85 1.46372 0.0740(27) 137037. 0.07171 0.07187
70717.95 1.46387 0.0769(28) 130554. 0.07171 0.07187
70725.05 1.46402 0.0762(28) 130853. 0.07171 0.07186
70732.1 1.46416 0.0751(28) 132006. 0.07170 0.07185
70739.16 1.46431 0.0714(26) 142825. 0.07170 0.07185
70746.25 1.46446 0.0740(27) 135282. 0.07170 0.07184
70753.35 1.46460 0.0703(26) 145313. 0.07170 0.07184
70760.4 1.46475 0.0719(27) 139984. 0.07170 0.07183
70767.45 1.46490 0.0746(27) 135357. 0.07170 0.07183
70774.55 1.46504 0.0738(27) 137601. 0.07169 0.07182
70781.66 1.46519 0.0757(27) 132251. 0.07169 0.07182
70788.7 1.46534 0.0719(27) 139373. 0.07169 0.07181
70795.75 1.46548 0.0705(26) 144177. 0.07169 0.07181
70802.85 1.46563 0.0743(27) 134106. 0.07169 0.07180
70809.95 1.46578 0.0738(27) 136915. 0.07168 0.07180
70817.05 1.46592 0.0793(28) 123913. 0.07168 0.07180
70824.1 1.46607 0.0760(28) 131612. 0.07168 0.07179
70831.16 1.46621 0.0733(27) 139681. 0.07168 0.07179
70838.25 1.46636 0.0710(27) 140758. 0.07168 0.07178
70845.35 1.46651 0.0727(27) 136866. 0.07168 0.07178
70852.45 1.46666 0.0754(27) 133235. 0.07167 0.07177
70859.55 1.46680 0.0709(26) 142862. 0.07167 0.07177
70866.6 1.46695 0.0696(26) 143732. 0.07167 0.07177
70873.66 1.46709 0.0728(27) 139798. 0.07167 0.07176
70880.75 1.46724 0.0779(28) 129555. 0.07167 0.07176
70887.85 1.46739 0.0764(27) 133568. 0.07167 0.07176
70894.95 1.46754 0.0711(26) 146872. 0.07166 0.07175
70902.05 1.46768 0.0735(27) 136679. 0.07166 0.07175
70909.16 1.46783 0.0746(27) 135271. 0.07166 0.07175
70916.25 1.46798 0.0728(27) 139388. 0.07166 0.07174
70923.35 1.46812 0.0717(27) 141012. 0.07166 0.07174
70930.45 1.46827 0.0743(27) 137133. 0.07166 0.07174
70937.55 1.46842 0.0721(27) 141694. 0.07165 0.07173
70944.6 1.46856 0.0686(26) 147891. 0.07165 0.07173
70951.66 1.46871 0.0723(27) 139918. 0.07165 0.07173
70958.75 1.46886 0.0707(26) 146212. 0.07165 0.07172
70965.85 1.46900 0.0735(27) 137869. 0.07165 0.07172
70972.95 1.46915 0.0730(27) 140593. 0.07165 0.07172
70980.05 1.46930 0.0750(27) 137587. 0.07164 0.07172
70987.16 1.46944 0.0756(27) 134584. 0.07164 0.07171
70994.25 1.46959 0.0720(27) 142277. 0.07164 0.07171
71001.35 1.46974 0.0709(26) 143482. 0.07164 0.07171
71008.45 1.46989 0.0700(26) 144611. 0.07164 0.07170
71015.55 1.47003 0.0686(26) 148535. 0.07164 0.07170
71022.66 1.47018 0.0715(27) 140580. 0.07163 0.07170
71029.75 1.47033 0.0755(27) 133069. 0.07163 0.07170
71036.85 1.47047 0.0776(28) 129332. 0.07163 0.07169
71043.95 1.47062 0.0733(27) 139447. 0.07163 0.07169
71051.05 1.47077 0.0719(27) 141854. 0.07163 0.07169
71058.2 1.47092 0.0706(26) 146242. 0.07163 0.07169
71065.35 1.47106 0.0713(26) 142630. 0.07163 0.07168
71072.45 1.47121 0.0726(27) 140909. 0.07162 0.07168
71079.55 1.47136 0.0708(26) 143695. 0.07162 0.07168
71086.66 1.47150 0.0703(26) 143661. 0.07162 0.07168
71093.75 1.47165 0.0698(26) 146879. 0.07162 0.07167
71100.85 1.47180 0.0763(28) 130292. 0.07162 0.07167
71107.95 1.47194 0.0762(28) 130795. 0.07162 0.07167
71115.05 1.47209 0.0754(28) 132021. 0.07161 0.07167
71122.16 1.47224 0.0718(27) 140182. 0.07161 0.07166
71129.3 1.47239 0.0702(26) 143814. 0.07161 0.07166
71136.45 1.47253 0.0718(27) 138504. 0.07161 0.07166
71143.55 1.47268 0.0719(27) 137645. 0.07161 0.07166
71150.66 1.47283 0.0706(27) 142351. 0.07161 0.07165
71157.75 1.47298 0.0746(27) 133752. 0.07161 0.07165
71164.85 1.47312 0.0763(28) 128455. 0.07160 0.07165
71171.95 1.47327 0.0721(27) 137635. 0.07160 0.07165
71179.05 1.47342 0.0759(28) 129604. 0.07160 0.07165
71186.2 1.47356 0.0742(27) 135425. 0.07160 0.07164
71193.35 1.47371 0.0742(27) 134517. 0.07160 0.07164
71200.45 1.47386 0.0772(28) 126492. 0.07160 0.07164
71207.55 1.47401 0.0729(27) 134878. 0.07159 0.07164
71214.7 1.47415 0.0692(26) 144846. 0.07159 0.07164
71221.85 1.47430 0.0699(26) 144090. 0.07159 0.07163
71228.95 1.47445 0.0735(27) 135307. 0.07159 0.07163
71236.05 1.47460 0.0736(27) 135903. 0.07159 0.07163
71243.16 1.47474 0.0729(27) 138757. 0.07159 0.07163
71250.3 1.47489 0.0733(27) 137850. 0.07159 0.07163
71257.45 1.47504 0.0718(27) 140746. 0.07158 0.07162
71264.55 1.47519 0.0746(27) 133553. 0.07158 0.07162
71271.7 1.47533 0.0723(26) 142411. 0.07158 0.07162
71278.85 1.47548 0.0772(28) 129945. 0.07158 0.07162
71285.95 1.47563 0.0738(27) 137741. 0.07158 0.07162
71293.05 1.47578 0.0710(26) 143843. 0.07158 0.07161
71300.2 1.47592 0.0680(26) 152224. 0.07158 0.07161
71307.35 1.47607 0.0704(26) 143119. 0.07157 0.07161
71314.45 1.47622 0.0733(27) 134618. 0.07157 0.07161
71321.6 1.47637 0.0721(27) 139721. 0.07157 0.07161
71328.75 1.47652 0.0742(27) 136844. 0.07157 0.07160
71335.85 1.47666 0.0752(27) 134025. 0.07157 0.07160
71343.0 1.47681 0.0730(27) 141261. 0.07157 0.07160
71350.16 1.47696 0.0756(28) 132123. 0.07157 0.07160
71357.25 1.47711 0.0742(27) 135123. 0.07156 0.07160
71364.41 1.47725 0.0738(27) 137162. 0.07156 0.07159
71371.55 1.47740 0.0720(27) 137808. 0.07156 0.07158
71378.66 1.47755 0.0721(27) 138841. 0.07156 0.07158
71385.8 1.47770 0.0734(27) 139054. 0.07156 0.07158
71392.95 1.47785 0.0760(28) 130888. 0.07156 0.07158
71400.05 1.47799 0.0740(27) 135165. 0.07156 0.07158
71407.2 1.47814 0.0759(27) 134634. 0.07155 0.07158
71414.35 1.47829 0.0788(28) 127004. 0.07155 0.07157
71421.5 1.47844 0.0714(26) 143597. 0.07155 0.07157
71428.66 1.47858 0.0739(27) 134658. 0.07155 0.07156
71435.8 1.47873 0.0725(27) 139075. 0.07155 0.07156
71442.95 1.47888 0.0712(27) 138659. 0.07155 0.07156
71450.05 1.47903 0.0686(26) 146081. 0.07155 0.07155
71457.2 1.47918 0.0749(27) 133871. 0.07155 0.07155
71464.35 1.47932 0.0787(28) 125627. 0.07154 0.07154
71471.5 1.47947 0.0733(27) 137992. 0.07154 0.07154
71478.66 1.47962 0.0706(26) 143394. 0.07154 0.07154
71485.8 1.47977 0.0711(26) 142779. 0.07154 0.07154
71492.95 1.47992 0.0743(27) 135502. 0.07154 0.07154
71500.1 1.48006 0.0768(28) 131294. 0.07154 0.07154
71507.25 1.48021 0.0753(28) 131041. 0.07154 0.07154
71514.41 1.48036 0.0747(27) 132985. 0.07154 0.07154
71521.55 1.48051 0.0726(27) 137784. 0.07153 0.07153
71528.7 1.48066 0.0719(27) 138973. 0.07153 0.07153
71535.85 1.48080 0.0684(26) 148143. 0.07153 0.07153
71543.0 1.48095 0.0729(27) 138088. 0.07153 0.07153
71550.2 1.48110 0.0730(27) 138047. 0.07153 0.07153
71557.35 1.48125 0.0705(26) 142414. 0.07153 0.07153
71564.5 1.48140 0.0733(27) 137706. 0.07153 0.07153
71571.66 1.48154 0.0752(27) 132837. 0.07152 0.07154
71578.8 1.48169 0.0764(28) 130045. 0.07152 0.07153
71585.95 1.48184 0.0734(27) 136499. 0.07152 0.07153
71593.1 1.48199 0.0725(27) 138500. 0.07152 0.07153
71600.3 1.48214 0.0711(26) 142587. 0.07152 0.07153
71607.45 1.48229 0.0724(27) 139159. 0.07152 0.07153
71614.6 1.48243 0.0708(27) 141782. 0.07152 0.07153
71621.75 1.48258 0.0710(27) 137427. 0.07152 0.07154
71628.91 1.48273 0.0714(27) 141112. 0.07151 0.07154
71636.1 1.48288 0.0769(28) 128208. 0.07151 0.07154
71643.25 1.48303 0.0753(28) 131629. 0.07151 0.07154
71650.41 1.48317 0.0727(27) 138085. 0.07151 0.07153
71657.6 1.48332 0.0695(26) 144447. 0.07151 0.07153
71664.75 1.48347 0.0710(27) 141320. 0.07151 0.07153
71671.91 1.48362 0.0679(26) 151113. 0.07151 0.07153
71679.05 1.48377 0.0688(26) 145353. 0.07151 0.07153
71686.2 1.48392 0.0692(26) 146591. 0.07151 0.07153
71693.41 1.48407 0.0797(29) 121825. 0.07150 0.07153
71700.6 1.48421 0.0781(28) 128580. 0.07150 0.07153
71707.75 1.48436 0.0781(28) 126450. 0.07150 0.07153
71714.91 1.48451 0.0724(27) 138838. 0.07150 0.07153
71722.1 1.48466 0.0684(26) 148050. 0.07150 0.07153
71729.25 1.48481 0.0704(27) 141281. 0.07150 0.07152
71736.41 1.48496 0.0699(26) 145232. 0.07150 0.07152
71743.6 1.48510 0.0718(27) 138183. 0.07150 0.07152
71750.8 1.48525 0.0631(25) 163287. 0.07149 0.07152
71757.95 1.48540 0.0688(26) 144373. 0.07149 0.07152
71765.1 1.48555 0.0675(26) 153646. 0.07149 0.07152
71772.3 1.48570 0.0723(27) 138676. 0.07149 0.07152
71779.5 1.48585 0.0683(26) 152248. 0.07149 0.07152
71786.7 1.48600 0.0703(26) 148936. 0.07149 0.07152
71793.85 1.48614 0.0725(27) 139080. 0.07149 0.07152
71801.0 1.48629 0.0666(25) 155418. 0.07149 0.07152
71808.2 1.48644 0.0700(26) 146127. 0.07149 0.07152
71815.41 1.48659 0.0704(26) 145112. 0.07148 0.07152
71822.6 1.48674 0.0702(26) 144929. 0.07148 0.07151
71829.75 1.48689 0.0719(27) 141043. 0.07148 0.07151
71836.91 1.48704 0.0704(26) 147120. 0.07148 0.07151
71844.1 1.48718 0.0726(27) 141013. 0.07148 0.07151
71851.3 1.48733 0.0721(26) 142632. 0.07148 0.07151
71858.5 1.48748 0.0680(26) 152162. 0.07148 0.07151
71865.7 1.48763 0.0708(26) 143322. 0.07148 0.07151
71872.85 1.48778 0.0678(25) 153848. 0.07148 0.07151
71880.0 1.48793 0.0710(26) 147333. 0.07147 0.07151
71887.2 1.48808 0.0764(27) 133419. 0.07147 0.07151
71894.41 1.48823 0.0749(27) 137071. 0.07147 0.07151
71901.6 1.48838 0.0710(26) 147135. 0.07147 0.07151
71908.8 1.48852 0.0765(28) 131724. 0.07147 0.07151
71916.0 1.48867 0.0755(27) 133556. 0.07147 0.07151
71923.2 1.48882 0.0729(27) 140380. 0.07147 0.07151
71930.41 1.48897 0.0708(26) 145814. 0.07147 0.07151
71937.6 1.48912 0.0667(26) 151350. 0.07147 0.07151
71944.8 1.48927 0.0672(26) 152487. 0.07147 0.07151
71952.0 1.48942 0.0724(27) 141863. 0.07146 0.07151
71959.16 1.48957 0.0735(27) 137638. 0.07146 0.07150
71966.3 1.48971 0.0728(27) 137210. 0.07146 0.07150
71973.5 1.48986 0.0664(26) 152387. 0.07146 0.07150
71980.7 1.49001 0.0661(26) 153185. 0.07146 0.07150
71987.91 1.49016 0.0742(27) 134137. 0.07146 0.07150
71995.1 1.49031 0.0711(26) 144808. 0.07146 0.07150
72002.3 1.49046 0.0700(26) 143376. 0.07146 0.07150
72009.5 1.49061 0.0737(27) 135513. 0.07146 0.07150
72016.7 1.49076 0.0762(28) 130103. 0.07146 0.07150
72023.91 1.49091 0.0743(27) 132739. 0.07145 0.07150
72031.1 1.49106 0.0704(26) 142938. 0.07145 0.07150
72038.3 1.49121 0.0712(27) 141209. 0.07145 0.07150
72045.5 1.49135 0.0723(27) 138583. 0.07145 0.07150
72052.75 1.49150 0.0724(27) 140399. 0.07145 0.07150
72060.0 1.49165 0.0745(27) 134368. 0.07145 0.07150
72067.2 1.49180 0.0773(28) 127259. 0.07145 0.07150
72074.41 1.49195 0.0754(27) 132511. 0.07145 0.07150
72081.6 1.49210 0.0741(28) 131713. 0.07145 0.07150
72088.8 1.49225 0.0711(27) 138363. 0.07145 0.07150
72096.0 1.49240 0.0719(27) 138681. 0.07144 0.07150
72103.2 1.49255 0.0732(27) 136525. 0.07144 0.07150
72110.41 1.49270 0.0696(26) 144667. 0.07144 0.07150
72117.6 1.49285 0.0692(26) 144412. 0.07144 0.07150
72124.85 1.49300 0.0727(27) 139798. 0.07144 0.07150
72132.1 1.49315 0.0728(27) 138675. 0.07144 0.07150
72139.3 1.49330 0.0707(27) 141840. 0.07144 0.07150
72146.5 1.49345 0.0701(26) 144213. 0.07144 0.07150
72153.7 1.49359 0.0761(28) 130124. 0.07144 0.07151
72160.91 1.49374 0.0714(27) 141676. 0.07144 0.07151
72168.1 1.49389 0.0704(26) 143551. 0.07144 0.07151
72175.35 1.49404 0.0689(26) 148251. 0.07143 0.07151
72182.6 1.49419 0.0655(25) 156039. 0.07143 0.07151
72189.8 1.49434 0.0734(27) 134182. 0.07143 0.07151
72197.0 1.49449 0.0718(27) 141576. 0.07143 0.07151
72204.2 1.49464 0.0767(28) 128531. 0.07143 0.07151
72211.41 1.49479 0.0662(25) 157240. 0.07143 0.07151
72218.66 1.49494 0.0670(26) 153461. 0.07143 0.07151
72225.91 1.49509 0.0726(27) 137520. 0.07143 0.07151
72233.1 1.49524 0.0719(27) 141922. 0.07143 0.07151
72240.3 1.49539 0.0743(27) 135154. 0.07143 0.07152
72247.55 1.49554 0.0750(27) 135651. 0.07143 0.07152
72254.8 1.49569 0.0707(26) 145425. 0.07142 0.07163
72262.0 1.49584 0.0683(26) 149564. 0.07142 0.07164
72269.2 1.49599 0.0692(26) 146386. 0.07142 0.07164
72276.45 1.49614 0.0707(26) 142803. 0.07142 0.07164
72283.7 1.49629 0.0701(26) 142759. 0.07142 0.07165
72290.91 1.49643 0.0691(26) 143784. 0.07142 0.07165
72298.16 1.49658 0.0682(26) 148019. 0.07142 0.07165
72305.41 1.49673 0.0662(26) 153009. 0.07142 0.07166
72312.6 1.49688 0.0678(26) 147702. 0.07142 0.07166
72319.85 1.49703 0.0695(26) 143779. 0.07142 0.07166
72327.1 1.49718 0.0657(25) 155740. 0.07142 0.07175
72334.3 1.49733 0.0724(27) 137883. 0.07142 0.07175
72341.5 1.49748 0.0720(27) 137914. 0.07142 0.07176
72348.75 1.49763 0.0696(26) 145987. 0.07141 0.07176
72356.0 1.49778 0.0712(27) 142308. 0.07141 0.07177
72363.2 1.49793 0.0751(28) 129790. 0.07141 0.07177
72370.45 1.49808 0.0732(27) 135378. 0.07141 0.07178
72377.7 1.49823 0.0716(27) 141910. 0.07141 0.07179
72384.95 1.49838 0.0734(27) 137895. 0.07141 0.07179
72392.2 1.49853 0.0740(27) 133721. 0.07141 0.07180
72399.41 1.49868 0.0717(27) 137085. 0.07141 0.07181
72406.66 1.49883 0.0700(26) 143649. 0.07141 0.07182
72413.91 1.49898 0.0723(27) 137376. 0.07141 0.07182
72421.16 1.49913 0.0701(26) 143878. 0.07141 0.07183
72428.41 1.49928 0.0726(27) 136900. 0.07141 0.07184
72435.6 1.49943 0.0728(27) 136862. 0.07141 0.07185
72442.85 1.49958 0.0731(27) 136852. 0.07140 0.07186
72450.1 1.49973 0.0708(26) 142504. 0.07140 0.07187
72457.35 1.49988 0.0699(26) 143533. 0.07140 0.07188
72464.6 1.50003 0.0719(27) 136228. 0.07140 0.07189
72471.85 1.50018 0.0718(27) 138260. 0.07140 0.07190
72479.1 1.50033 0.0734(27) 134293. 0.07140 0.07191
72486.35 1.50048 0.0687(26) 151239. 0.07140 0.07193
72493.6 1.50063 0.0750(28) 130870. 0.07140 0.07194
72500.85 1.50078 0.0702(26) 145283. 0.07140 0.07195
72508.1 1.50093 0.0763(28) 129440. 0.07140 0.07197
72515.35 1.50108 0.0737(27) 137797. 0.07140 0.07199
72522.6 1.50123 0.0768(28) 127688. 0.07140 0.07200
72529.85 1.50138 0.0725(27) 136996. 0.07140 0.07202
72537.1 1.50153 0.0692(26) 143392. 0.07140 0.07204
72544.35 1.50168 0.0723(27) 137463. 0.07139 0.07206
72551.6 1.50183 0.0746(28) 131649. 0.07139 0.07208
72558.85 1.50198 0.0721(27) 139058. 0.07139 0.07210
72566.16 1.50213 0.0748(28) 131625. 0.07139 0.07213
72573.41 1.50228 0.0727(27) 136002. 0.07139 0.07215
72580.66 1.50243 0.0765(28) 128566. 0.07139 0.07218
72587.91 1.50258 0.0805(29) 119325. 0.07139 0.07221
72595.16 1.50273 0.0747(28) 131932. 0.07139 0.07225
72602.41 1.50288 0.0794(29) 119471. 0.07139 0.07228
72609.66 1.50303 0.0751(27) 132729. 0.07139 0.07232
72616.95 1.50318 0.0780(28) 125506. 0.07139 0.07236
72624.2 1.50333 0.0788(28) 124435. 0.07139 0.07241
72631.45 1.50348 0.0779(28) 126256. 0.07139 0.07246
72638.75 1.50364 0.0749(28) 131681. 0.07139 0.07251
72646.0 1.50379 0.0751(28) 130565. 0.07139 0.07258
72653.25 1.50394 0.0752(28) 131742. 0.07139 0.07265
72660.5 1.50409 0.0744(27) 132580. 0.07138 0.07273
72667.75 1.50424 0.0698(26) 144758. 0.07138 0.07282
72675.05 1.50439 0.0725(27) 138271. 0.07138 0.07292
72682.3 1.50454 0.0733(27) 135799. 0.07138 0.07305
72689.55 1.50469 0.0745(27) 132907. 0.07138 0.07319
72696.85 1.50484 0.0691(26) 146769. 0.07138 0.07337
72704.16 1.50499 0.0712(26) 142735. 0.07138 0.07357
72711.41 1.50514 0.0761(28) 130917. 0.07138 0.07382
72718.66 1.50529 0.0736(27) 140097. 0.07138 0.07413
72725.95 1.50544 0.0726(26) 142952. 0.07138 0.07450
72733.2 1.50559 0.0721(26) 142940. 0.07138 0.07495
72740.45 1.50574 0.0705(26) 148066. 0.07138 0.07549
72747.75 1.50589 0.0755(27) 135375. 0.07138 0.07614
72755.05 1.50604 0.0776(27) 133135. 0.07138 0.07691
72762.35 1.50619 0.0723(26) 145955. 0.07138 0.07782
72769.6 1.50634 0.0726(27) 141876. 0.07138 0.07888
72776.85 1.50649 0.0706(26) 149888. 0.07138 0.08008
72784.16 1.50665 0.0724(26) 143192. 0.07138 0.08144
72791.41 1.50680 0.0762(27) 133905. 0.07137 0.08290
72798.66 1.50695 0.0798(28) 127846. 0.07137 0.08441
72805.95 1.50710 0.0765(27) 134502. 0.07137 0.08590
72813.25 1.50725 0.0742(27) 140056. 0.07137 0.08727
72820.55 1.50740 0.0767(27) 134706. 0.07137 0.08846
72827.85 1.50755 0.0801(28) 129758. 0.07137 0.08943
72835.1 1.50770 0.0884(30) 113089. 0.07137 0.09016
72842.35 1.50785 0.0866(29) 116746. 0.07137 0.09066
72849.66 1.50800 0.0835(29) 122711. 0.07137 0.09091
72856.95 1.50815 0.0886(30) 114330. 0.07137 0.09088
72864.25 1.50830 0.0899(30) 113652. 0.07137 0.09055
72871.55 1.50846 0.0890(30) 113776. 0.07137 0.08992
72878.85 1.50861 0.0873(29) 115799. 0.07137 0.08902
72886.1 1.50876 0.0881(30) 112761. 0.07137 0.08793
72893.35 1.50891 0.0855(29) 118618. 0.07137 0.08670
72900.66 1.50906 0.0860(29) 118127. 0.07137 0.08539
72907.95 1.50921 0.0839(29) 119436. 0.07137 0.08407
72915.25 1.50936 0.0823(29) 121482. 0.07137 0.08279
72922.55 1.50951 0.0868(30) 113927. 0.07137 0.08158
72929.85 1.50966 0.0845(29) 118019. 0.07137 0.08046
72937.16 1.50981 0.0791(28) 127812. 0.07137 0.07944
72944.45 1.50996 0.0789(28) 126700. 0.07137 0.07854
72951.75 1.51012 0.0770(28) 130297. 0.07136 0.07775
72959.05 1.51027 0.0757(28) 132123. 0.07136 0.07706
72966.35 1.51042 0.0692(26) 149282. 0.07136 0.07647
72973.66 1.51057 0.0736(27) 134710. 0.07136 0.07596
72980.95 1.51072 0.0741(27) 134249. 0.07136 0.07553
72988.25 1.51087 0.0727(27) 136669. 0.07136 0.07517
72995.55 1.51102 0.0755(27) 132498. 0.07136 0.07487
73002.85 1.51117 0.0731(27) 139675. 0.07136 0.07461
73010.16 1.51132 0.0757(28) 130058. 0.07136 0.07440
73017.45 1.51148 0.0735(27) 135162. 0.07136 0.07422
73024.75 1.51163 0.0746(27) 132379. 0.07136 0.07407
73032.05 1.51178 0.0733(27) 134804. 0.07136 0.07395
73039.35 1.51193 0.0709(27) 139573. 0.07136 0.07385
73046.66 1.51208 0.0734(27) 133666. 0.07136 0.07377
73053.95 1.51223 0.0696(27) 142206. 0.07136 0.07371
73061.25 1.51238 0.0721(27) 135116. 0.07136 0.07366
73068.55 1.51253 0.0724(27) 137518. 0.07136 0.07362
73075.85 1.51268 0.0739(27) 133776. 0.07136 0.07359
73083.16 1.51284 0.0743(27) 133922. 0.07136 0.07358
73090.45 1.51299 0.0830(29) 115285. 0.07136 0.07357
73097.75 1.51314 0.0763(28) 128508. 0.07136 0.07358
73105.05 1.51329 0.0744(28) 128792. 0.07136 0.07359
73112.35 1.51344 0.0728(27) 132689. 0.07136 0.07360
73119.7 1.51359 0.0693(26) 143172. 0.07136 0.07363
73127.05 1.51374 0.0703(27) 138365. 0.07136 0.07366
73134.35 1.51390 0.0755(28) 126494. 0.07136 0.07369
73141.66 1.51405 0.0731(27) 133676. 0.07136 0.07374
73148.95 1.51420 0.0761(28) 125815. 0.07136 0.07379
73156.25 1.51435 0.0731(27) 132448. 0.07135 0.07384
73163.55 1.51450 0.0711(27) 137410. 0.07135 0.07390
73170.91 1.51465 0.0733(27) 133814. 0.07135 0.07397
73178.25 1.51480 0.0801(29) 117049. 0.07135 0.07405
73185.55 1.51496 0.0791(29) 121076. 0.07135 0.07413
73192.85 1.51511 0.0778(29) 122851. 0.07135 0.07422
73200.16 1.51526 0.0786(29) 120834. 0.07135 0.07432
73207.45 1.51541 0.0764(28) 124737. 0.07135 0.07443
73214.8 1.51556 0.0744(28) 130299. 0.07135 0.07454
73222.16 1.51571 0.0771(28) 123884. 0.07135 0.07467
73229.45 1.51586 0.0772(29) 121933. 0.07135 0.07481
73236.75 1.51602 0.0721(28) 131844. 0.07135 0.07496
73244.1 1.51617 0.0696(27) 140562. 0.07135 0.07512
73251.45 1.51632 0.0785(29) 120836. 0.07135 0.07529
73258.75 1.51647 0.0832(30) 112448. 0.07135 0.07548
73266.05 1.51662 0.0769(28) 123984. 0.07135 0.07569
73273.41 1.51677 0.0738(27) 132698. 0.07135 0.07592
73280.75 1.51693 0.0818(30) 114880. 0.07135 0.07617
73288.05 1.51708 0.0806(29) 117342. 0.07135 0.07644
73295.35 1.51723 0.0809(29) 116407. 0.07135 0.07674
73302.7 1.51738 0.0814(29) 118946. 0.07135 0.07707
73310.05 1.51753 0.0877(31) 106372. 0.07135 0.07743
73317.35 1.51768 0.0789(29) 121739. 0.07135 0.07783
73324.7 1.51784 0.0809(29) 117364. 0.07135 0.07828
73332.05 1.51799 0.0826(30) 113659. 0.07135 0.07878
73339.35 1.51814 0.0796(29) 119274. 0.07135 0.07934
73346.7 1.51829 0.0825(30) 113981. 0.07135 0.07998
73354.05 1.51844 0.0846(30) 110462. 0.07135 0.08071
73361.35 1.51860 0.0908(31) 101631. 0.07135 0.08156
73368.7 1.51875 0.0903(31) 103190. 0.07135 0.08255
73376.05 1.51890 0.0864(30) 108726. 0.07135 0.08374
73383.41 1.51905 0.0850(30) 112304. 0.07135 0.08519
73390.75 1.51920 0.0898(31) 103479. 0.07135 0.08698
73398.05 1.51935 0.0956(32) 98409. 0.07135 0.08918
73405.41 1.51951 0.1004(33) 94504. 0.07135 0.09198
73412.75 1.51966 0.1037(33) 90833. 0.07135 0.09549
73420.1 1.51981 0.1060(33) 89678. 0.07135 0.09990
73427.45 1.51996 0.1128(35) 82131. 0.07135 0.10538
73434.75 1.52011 0.116(4) 80822. 0.0713 0.1120
73442.1 1.52027 0.126(4) 74064. 0.0713 0.1201
73449.45 1.52042 0.137(4) 65923. 0.0713 0.1297
73456.8 1.52057 0.139(4) 67452. 0.0713 0.1406
73464.16 1.52072 0.150(4) 61995. 0.0713 0.1528
73471.5 1.52088 0.167(4) 54936. 0.0713 0.1659
73478.85 1.52103 0.181(4) 50005. 0.0713 0.1791
73486.2 1.52118 0.190(5) 48199. 0.0713 0.1915
73493.55 1.52133 0.206(5) 43512. 0.0713 0.2023
73500.91 1.52148 0.211(5) 42869. 0.0713 0.2107
73508.25 1.52164 0.220(5) 40291. 0.0713 0.2165
73515.6 1.52179 0.219(5) 41285. 0.0713 0.2199
73522.95 1.52194 0.224(5) 39813. 0.0713 0.2213
73530.3 1.52209 0.215(5) 42186. 0.0713 0.2215
73537.66 1.52225 0.218(5) 40704. 0.0713 0.2210
73545.0 1.52240 0.219(5) 40526. 0.0713 0.2200
73552.35 1.52255 0.219(5) 40128. 0.0713 0.2186
73559.7 1.52270 0.216(5) 40992. 0.0713 0.2165
73567.1 1.52285 0.207(5) 43097. 0.0713 0.2134
73574.45 1.52301 0.213(5) 41167. 0.0713 0.2088
73581.8 1.52316 0.209(5) 42965. 0.0713 0.2027
73589.16 1.52331 0.198(5) 45144. 0.0713 0.1951
73596.5 1.52346 0.184(4) 49693. 0.0713 0.1864
73603.85 1.52362 0.181(4) 49730. 0.0713 0.1770
73611.2 1.52377 0.164(4) 56412. 0.0713 0.1673
73618.6 1.52392 0.151(4) 62801. 0.0713 0.1575
73625.95 1.52407 0.153(4) 59612. 0.0713 0.1481
73633.3 1.52422 0.144(4) 65175. 0.0713 0.1393
73640.7 1.52438 0.130(4) 72681. 0.0713 0.1311
73648.05 1.52453 0.122(4) 76863. 0.0713 0.1238
73655.41 1.52468 0.1163(35) 82068. 0.07135 0.11718
73662.75 1.52483 0.116(4) 80874. 0.0713 0.1114
73670.1 1.52499 0.1049(33) 91929. 0.07135 0.10634
73677.5 1.52514 0.1044(33) 91518. 0.07135 0.10194
73684.85 1.52529 0.0992(32) 98224. 0.07135 0.09818
73692.2 1.52544 0.0958(31) 102165. 0.07135 0.09495
73699.6 1.52560 0.0872(30) 113882. 0.07135 0.09216
73707.0 1.52575 0.0850(29) 116223. 0.07135 0.08978
73714.35 1.52590 0.0885(30) 108840. 0.07135 0.08775
73721.7 1.52606 0.0820(29) 122494. 0.07135 0.08600
73729.1 1.52621 0.0834(29) 119200. 0.07135 0.08450
73736.45 1.52636 0.0859(30) 113466. 0.07135 0.08320
73743.8 1.52651 0.0789(28) 127892. 0.07135 0.08208
73751.2 1.52667 0.0757(27) 134188. 0.07135 0.08110
73758.6 1.52682 0.0768(28) 131115. 0.07135 0.08024
73765.95 1.52697 0.0767(28) 129189. 0.07135 0.07950
73773.3 1.52712 0.0781(28) 125699. 0.07135 0.07885
73780.7 1.52728 0.0767(28) 129534. 0.07135 0.07827
73788.1 1.52743 0.0769(28) 128230. 0.07135 0.07775
73795.5 1.52758 0.0736(27) 133225. 0.07135 0.07730
73802.85 1.52774 0.0757(28) 127530. 0.07135 0.07689
73810.2 1.52789 0.0791(28) 124213. 0.07135 0.07653
73817.6 1.52804 0.0761(28) 131516. 0.07135 0.07620
73825.0 1.52819 0.0743(27) 134068. 0.07135 0.07590
73832.41 1.52835 0.0735(27) 134792. 0.07135 0.07563
73839.8 1.52850 0.0729(27) 136477. 0.07135 0.07539
73847.16 1.52865 0.0770(28) 125663. 0.07135 0.07517
73854.5 1.52880 0.0736(27) 134867. 0.07135 0.07497
73861.91 1.52896 0.0805(29) 121035. 0.07135 0.07478
73869.3 1.52911 0.0753(28) 132066. 0.07135 0.07461
73876.7 1.52926 0.0717(27) 137375. 0.07135 0.07445
73884.1 1.52942 0.0691(26) 145191. 0.07135 0.07430
73891.5 1.52957 0.0738(28) 131381. 0.07135 0.07417
73898.85 1.52972 0.0768(28) 125197. 0.07135 0.07404
73906.2 1.52987 0.0747(27) 133509. 0.07135 0.07393
73913.6 1.53003 0.0761(28) 128669. 0.07135 0.07382
73921.0 1.53018 0.0763(28) 127654. 0.07135 0.07372
73928.41 1.53033 0.0738(27) 132395. 0.07135 0.07362
73935.8 1.53049 0.0747(28) 130865. 0.07135 0.07353
73943.2 1.53064 0.0823(29) 115494. 0.07135 0.07345
73950.6 1.53079 0.0785(28) 123261. 0.07135 0.07337
73958.0 1.53095 0.0752(28) 130160. 0.07135 0.07329
73965.41 1.53110 0.0757(28) 125572. 0.07135 0.07322
73972.8 1.53125 0.0707(27) 136003. 0.07135 0.07315
73980.2 1.53141 0.0758(28) 124575. 0.07135 0.07309
73987.6 1.53156 0.0763(28) 123440. 0.07135 0.07303
73995.0 1.53171 0.0749(28) 128624. 0.07135 0.07298
74002.41 1.53187 0.0779(29) 122519. 0.07135 0.07292
74009.8 1.53202 0.0737(28) 130086. 0.07135 0.07287
74017.2 1.53217 0.0744(28) 128917. 0.07135 0.07282
74024.6 1.53233 0.0776(29) 122980. 0.07135 0.07278
74032.0 1.53248 0.0744(28) 128087. 0.07135 0.07273
74039.41 1.53263 0.0719(27) 132511. 0.07135 0.07269
74046.8 1.53279 0.0744(28) 125773. 0.07135 0.07265
74054.2 1.53294 0.0767(29) 122552. 0.07135 0.07261
74061.6 1.53309 0.0716(27) 137157. 0.07135 0.07257
74069.0 1.53324 0.0719(27) 133493. 0.07135 0.07253
74076.41 1.53340 0.0747(28) 127002. 0.07135 0.07250
74083.8 1.53355 0.0726(27) 134318. 0.07135 0.07247
74091.2 1.53370 0.0791(29) 120549. 0.07135 0.07244
74098.6 1.53386 0.0735(27) 132795. 0.07135 0.07241
74106.0 1.53401 0.0726(27) 134259. 0.07135 0.07237
74113.45 1.53417 0.0725(27) 136599. 0.07135 0.07234
74120.91 1.53432 0.0697(26) 142585. 0.07135 0.07232
74128.3 1.53447 0.0716(27) 135819. 0.07135 0.07229
74135.7 1.53463 0.0662(26) 151486. 0.07136 0.07227
74143.1 1.53478 0.0761(28) 126684. 0.07136 0.07225
74150.5 1.53493 0.0730(27) 137320. 0.07136 0.07222
74157.91 1.53509 0.0747(28) 130659. 0.07136 0.07220
74165.35 1.53524 0.0695(26) 145049. 0.07136 0.07218
74172.8 1.53539 0.0715(27) 137360. 0.07136 0.07216
74180.2 1.53555 0.0690(26) 144218. 0.07136 0.07214
74187.6 1.53570 0.0713(27) 140417. 0.07136 0.07213
74195.0 1.53585 0.0736(27) 134335. 0.07136 0.07211
74202.41 1.53601 0.0697(27) 142084. 0.07136 0.07209
74209.85 1.53616 0.0724(27) 136161. 0.07136 0.07208
74217.3 1.53632 0.0721(27) 137086. 0.07136 0.07206
74224.7 1.53647 0.0733(27) 133695. 0.07136 0.07204
74232.1 1.53662 0.0737(27) 133260. 0.07136 0.07203
74239.55 1.53678 0.0747(28) 130510. 0.07136 0.07202
74247.0 1.53693 0.0748(28) 128549. 0.07136 0.07200
74254.41 1.53708 0.0716(27) 135799. 0.07136 0.07199
74261.8 1.53724 0.0757(28) 128017. 0.07136 0.07198
74269.25 1.53739 0.0752(27) 132512. 0.07136 0.07196
74276.7 1.53754 0.0716(27) 138781. 0.07136 0.07195
74284.1 1.53770 0.0750(28) 127672. 0.07136 0.07194
74291.55 1.53785 0.0730(27) 134948. 0.07136 0.07193
74299.0 1.53801 0.0774(28) 124141. 0.07136 0.07192
74306.41 1.53816 0.0737(28) 132016. 0.07136 0.07191
74313.8 1.53831 0.0765(28) 126826. 0.07136 0.07190
74321.25 1.53847 0.0751(27) 133240. 0.07136 0.07189
74328.7 1.53862 0.0783(28) 124379. 0.07136 0.07188
74336.1 1.53877 0.0779(28) 123674. 0.07136 0.07187
74343.55 1.53893 0.0770(28) 126668. 0.07136 0.07186
74351.0 1.53908 0.0783(29) 122608. 0.07137 0.07185
74358.41 1.53924 0.0754(28) 128005. 0.07137 0.07184
74365.85 1.53939 0.0746(28) 131256. 0.07137 0.07183
74373.3 1.53954 0.0779(29) 121568. 0.07137 0.07183
74380.75 1.53970 0.0739(28) 131692. 0.07137 0.07182
74388.2 1.53985 0.0776(28) 123992. 0.07137 0.07181
74395.6 1.54001 0.0812(29) 118404. 0.07137 0.07180
74403.05 1.54016 0.0817(29) 116879. 0.07137 0.07180
74410.5 1.54031 0.0773(29) 122981. 0.07137 0.07179
74417.95 1.54047 0.0757(28) 128704. 0.07137 0.07178
74425.41 1.54062 0.0782(29) 122228. 0.07137 0.07178
74432.8 1.54078 0.0757(28) 127742. 0.07137 0.07177
74440.25 1.54093 0.0755(28) 128797. 0.07137 0.07176
74447.7 1.54108 0.0722(27) 134046. 0.07137 0.07176
74455.15 1.54124 0.0735(28) 131823. 0.07137 0.07175
74462.6 1.54139 0.0759(28) 127881. 0.07137 0.07178
74470.05 1.54155 0.0742(28) 131698. 0.07137 0.07178
74477.5 1.54170 0.0757(28) 125593. 0.07137 0.07177
74484.95 1.54186 0.0710(27) 136956. 0.07137 0.07177
74492.41 1.54201 0.0721(27) 132901. 0.07137 0.07176
74499.85 1.54216 0.0730(27) 133735. 0.07137 0.07176
74507.3 1.54232 0.0765(28) 124751. 0.07137 0.07175
74514.75 1.54247 0.0779(28) 123231. 0.07138 0.07175
74522.2 1.54263 0.0772(28) 123271. 0.07138 0.07174
74529.65 1.54278 0.0747(28) 128133. 0.07138 0.07174
74537.1 1.54294 0.0699(27) 139458. 0.07138 0.07174
74544.55 1.54309 0.0678(26) 145264. 0.07138 0.07173
74552.0 1.54324 0.0723(28) 130914. 0.07138 0.07173
74559.45 1.54340 0.0704(27) 139040. 0.07138 0.07172
74566.91 1.54355 0.0756(28) 123971. 0.07138 0.07172
74574.35 1.54371 0.0712(27) 137326. 0.07138 0.07172
74581.85 1.54386 0.0715(27) 135268. 0.07138 0.07171
74589.3 1.54402 0.0713(28) 132008. 0.07138 0.07171
74596.75 1.54417 0.0725(28) 131208. 0.07138 0.07171
74604.2 1.54432 0.0724(28) 130120. 0.07138 0.07171
74611.65 1.54448 0.0677(26) 144167. 0.07138 0.07170
74619.15 1.54463 0.0725(28) 131557. 0.07138 0.07170
74626.6 1.54479 0.0739(28) 125633. 0.07138 0.07170
74634.05 1.54494 0.0676(26) 142819. 0.07138 0.07170
74641.5 1.54510 0.0694(27) 137396. 0.07138 0.07169
74648.95 1.54525 0.0704(27) 135957. 0.07138 0.07169
74656.45 1.54541 0.0713(27) 133350. 0.07139 0.07169
74663.91 1.54556 0.0701(27) 135172. 0.07139 0.07169
74671.35 1.54571 0.0646(26) 152370. 0.07139 0.07168
74678.85 1.54587 0.0670(26) 144423. 0.07139 0.07168
74686.3 1.54602 0.0724(28) 130177. 0.07139 0.07168
74693.75 1.54618 0.0725(27) 133187. 0.07139 0.07168
74701.25 1.54633 0.0735(28) 129022. 0.07139 0.07168
74708.75 1.54649 0.0712(27) 133601. 0.07139 0.07167
74716.2 1.54664 0.0720(28) 130930. 0.07139 0.07167
74723.65 1.54680 0.0687(26) 143487. 0.07139 0.07167
74731.15 1.54695 0.0739(28) 128186. 0.07139 0.07167
74738.6 1.54711 0.0686(27) 139327. 0.07139 0.07167
74746.05 1.54726 0.0695(27) 137186. 0.07139 0.07167
74753.55 1.54742 0.0684(27) 142008. 0.07139 0.07167
74761.05 1.54757 0.0700(27) 134867. 0.07139 0.07166
74768.5 1.54773 0.0663(26) 145280. 0.07139 0.07166
74775.95 1.54788 0.0700(27) 137317. 0.07140 0.07166
74783.45 1.54804 0.0690(26) 142695. 0.07140 0.07166
74790.95 1.54819 0.0692(27) 140034. 0.07140 0.07166
74798.41 1.54835 0.0706(27) 135447. 0.07140 0.07166
74805.85 1.54850 0.0759(28) 126252. 0.07140 0.07166
74813.35 1.54865 0.0734(28) 130748. 0.07140 0.07166
74820.85 1.54881 0.0699(27) 136834. 0.07140 0.07155
74828.35 1.54897 0.0690(27) 139848. 0.07140 0.07155
74835.85 1.54912 0.0707(27) 136139. 0.07140 0.07155
74843.3 1.54927 0.0711(27) 133372. 0.07140 0.07155
74850.75 1.54943 0.0736(28) 129778. 0.07140 0.07155
74858.25 1.54958 0.0758(28) 124529. 0.07140 0.07155
74865.75 1.54974 0.0737(28) 130595. 0.07140 0.07155
74873.25 1.54989 0.0707(27) 136455. 0.07140 0.07155
74880.75 1.55005 0.0701(27) 134140. 0.07140 0.07156
74888.25 1.55021 0.0725(27) 132373. 0.07141 0.07156
74895.75 1.55036 0.0744(28) 128618. 0.07141 0.07148
74903.2 1.55051 0.0748(28) 124184. 0.07141 0.07149
74910.65 1.55067 0.0702(27) 138019. 0.07141 0.07149
74918.15 1.55082 0.0727(28) 130328. 0.07141 0.07149
74925.65 1.55098 0.0699(27) 137116. 0.07141 0.07149
74933.15 1.55113 0.0724(28) 131009. 0.07141 0.07149
74940.65 1.55129 0.0720(27) 133150. 0.07141 0.07150
74948.15 1.55145 0.0709(27) 137551. 0.07141 0.07150
74955.65 1.55160 0.0726(27) 132990. 0.07141 0.07150
74963.15 1.55176 0.0740(28) 128171. 0.07141 0.07150
74970.65 1.55191 0.0737(28) 128612. 0.07141 0.07151
74978.15 1.55207 0.0775(29) 121411. 0.07141 0.07151
74985.65 1.55222 0.0734(28) 130145. 0.07142 0.07151
74993.15 1.55238 0.0753(28) 124016. 0.07142 0.07151
75000.65 1.55253 0.0741(28) 126872. 0.07142 0.07152
75008.15 1.55269 0.0710(27) 132445. 0.07142 0.07152
75015.65 1.55284 0.0693(27) 137486. 0.07142 0.07152
75023.15 1.55300 0.0707(27) 137099. 0.07142 0.07152
75030.65 1.55315 0.0745(28) 125892. 0.07142 0.07153
75038.15 1.55331 0.0707(27) 133888. 0.07142 0.07153
75045.65 1.55346 0.0684(27) 141749. 0.07142 0.07153
75053.15 1.55362 0.0743(28) 127646. 0.07142 0.07154
75060.65 1.55377 0.0672(26) 146640. 0.07142 0.07154
75068.15 1.55393 0.0699(27) 136954. 0.07142 0.07154
75075.65 1.55408 0.0682(26) 142992. 0.07142 0.07154
75083.15 1.55424 0.0735(28) 129013. 0.07143 0.07155
75090.65 1.55440 0.0677(26) 144067. 0.07143 0.07155
75098.15 1.55455 0.0726(28) 130385. 0.07143 0.07156
75105.65 1.55471 0.0749(28) 126113. 0.07143 0.07156
75113.2 1.55486 0.0699(27) 138363. 0.07143 0.07156
75120.75 1.55502 0.0710(27) 135244. 0.07143 0.07157
75128.25 1.55517 0.0711(27) 136307. 0.07143 0.07157
75135.75 1.55533 0.0748(28) 126019. 0.07143 0.07157
75143.25 1.55548 0.0701(27) 138310. 0.07143 0.07158
75150.75 1.55564 0.0683(27) 141271. 0.07143 0.07158
75158.25 1.55579 0.0699(27) 134677. 0.07143 0.07159
75165.8 1.55595 0.0691(27) 140412. 0.07143 0.07159
75173.35 1.55611 0.0702(27) 137634. 0.07144 0.07160
75180.85 1.55626 0.0690(27) 139673. 0.07144 0.07160
75188.35 1.55642 0.0702(27) 136962. 0.07144 0.07161
75195.85 1.55657 0.0731(28) 127426. 0.07144 0.07161
75203.41 1.55673 0.0692(27) 138539. 0.07144 0.07162
75210.95 1.55689 0.0709(27) 135471. 0.07144 0.07162
75218.45 1.55704 0.0736(28) 129344. 0.07144 0.07163
75225.95 1.55720 0.0735(28) 130443. 0.07144 0.07163
75233.45 1.55735 0.0721(27) 133111. 0.07144 0.07164
75241.0 1.55751 0.0694(27) 141467. 0.07144 0.07164
75248.55 1.55766 0.0717(27) 132548. 0.07144 0.07165
75256.05 1.55782 0.0724(28) 131188. 0.07145 0.07166
75263.55 1.55797 0.0746(28) 128481. 0.07145 0.07166
75271.1 1.55813 0.0693(27) 141655. 0.07145 0.07167
75278.65 1.55829 0.0713(27) 133655. 0.07145 0.07168
75286.15 1.55844 0.0734(28) 127744. 0.07145 0.07169
75293.7 1.55860 0.0693(27) 139358. 0.07145 0.07169
75301.25 1.55876 0.0703(27) 136897. 0.07145 0.07170
75308.75 1.55891 0.0693(27) 142075. 0.07145 0.07171
75316.25 1.55907 0.0698(27) 138887. 0.07145 0.07172
75323.8 1.55922 0.0657(26) 149822. 0.07145 0.07173
75331.35 1.55938 0.0701(27) 136482. 0.07145 0.07174
75338.85 1.55953 0.0726(28) 132037. 0.07146 0.07175
75346.41 1.55969 0.0710(27) 137517. 0.07146 0.07176
75353.95 1.55985 0.0740(28) 128006. 0.07146 0.07177
75361.45 1.56000 0.0724(27) 132922. 0.07146 0.07178
75369.0 1.56016 0.0707(27) 134642. 0.07146 0.07180
75376.55 1.56031 0.0693(27) 135573. 0.07146 0.07181
75384.1 1.56047 0.0713(27) 132673. 0.07146 0.07182
75391.65 1.56063 0.0701(27) 134783. 0.07146 0.07184
75399.15 1.56078 0.0682(27) 139241. 0.07146 0.07185
75406.7 1.56094 0.0706(27) 136775. 0.07146 0.07187
75414.25 1.56109 0.0780(29) 118709. 0.07147 0.07189
75421.8 1.56125 0.0742(28) 126135. 0.07147 0.07190
75429.35 1.56141 0.0721(28) 129455. 0.07147 0.07192
75436.85 1.56156 0.0700(28) 132113. 0.07147 0.07194
75444.41 1.56172 0.0681(27) 139692. 0.07147 0.07196
75451.95 1.56188 0.0714(28) 131393. 0.07147 0.07198
75459.5 1.56203 0.0703(27) 135821. 0.07147 0.07201
75467.05 1.56219 0.0750(28) 123654. 0.07147 0.07203
75474.6 1.56234 0.0734(28) 130292. 0.07147 0.07206
75482.15 1.56250 0.0716(27) 132376. 0.07147 0.07209
75489.7 1.56266 0.0723(28) 129200. 0.07148 0.07212
75497.25 1.56281 0.0730(28) 129243. 0.07148 0.07215
75504.8 1.56297 0.0728(28) 131388. 0.07148 0.07219
75512.35 1.56313 0.0702(27) 135602. 0.07148 0.07223
75519.91 1.56328 0.0693(27) 139720. 0.07148 0.07227
75527.45 1.56344 0.0720(28) 130189. 0.07148 0.07231
75535.0 1.56359 0.0680(26) 142566. 0.07148 0.07236
75542.55 1.56375 0.0693(27) 137263. 0.07148 0.07241
75550.1 1.56391 0.0696(27) 138349. 0.07148 0.07247
75557.65 1.56406 0.0743(28) 126880. 0.07148 0.07253
75565.2 1.56422 0.0720(27) 133587. 0.07149 0.07260
75572.8 1.56438 0.0721(27) 132934. 0.07149 0.07267
75580.35 1.56453 0.0761(28) 125097. 0.07149 0.07276
75587.91 1.56469 0.0759(28) 127927. 0.07149 0.07285
75595.45 1.56485 0.0711(27) 136514. 0.07149 0.07295
75603.0 1.56500 0.0698(27) 140239. 0.07149 0.07306
75610.6 1.56516 0.0696(27) 140683. 0.07149 0.07318
75618.15 1.56532 0.0706(27) 136293. 0.07149 0.07332
75625.7 1.56547 0.0705(27) 138554. 0.07149 0.07348
75633.25 1.56563 0.0718(27) 136208. 0.07150 0.07366
75640.8 1.56578 0.0730(27) 134335. 0.07150 0.07388
75648.41 1.56594 0.0699(27) 140060. 0.07150 0.07413
75655.95 1.56610 0.0672(26) 145528. 0.07150 0.07443
75663.5 1.56625 0.0707(27) 136612. 0.07150 0.07479
75671.1 1.56641 0.0698(27) 140559. 0.07150 0.07525
75678.65 1.56657 0.0725(27) 132475. 0.07150 0.07582
75686.2 1.56672 0.0749(28) 130370. 0.07150 0.07656
75693.8 1.56688 0.0812(29) 117131. 0.07150 0.07749
75701.35 1.56704 0.0792(29) 118519. 0.07151 0.07868
75708.91 1.56719 0.0728(27) 132458. 0.07151 0.08017
75716.5 1.56735 0.0740(28) 131972. 0.07151 0.08203
75724.1 1.56751 0.0848(30) 112581. 0.07151 0.08431
75731.65 1.56767 0.0838(29) 116592. 0.07151 0.08700
75739.2 1.56782 0.0911(31) 104252. 0.07151 0.09013
75746.8 1.56798 0.0901(31) 105491. 0.07151 0.09365
75754.35 1.56814 0.0959(32) 96336. 0.07151 0.09743
75761.91 1.56829 0.0959(32) 98788. 0.07151 0.10126
75769.5 1.56845 0.1016(33) 91131. 0.07152 0.10488
75777.1 1.56861 0.1056(34) 86568. 0.07152 0.10791
75784.7 1.56876 0.1053(34) 88870. 0.07152 0.11003
75792.25 1.56892 0.114(4) 78282. 0.0715 0.1110
75799.8 1.56908 0.114(4) 79080. 0.0715 0.1110
75807.41 1.56923 0.113(4) 80156. 0.0715 0.1098
75815.0 1.56939 0.1077(34) 84140. 0.07152 0.10791
75822.6 1.56955 0.1083(35) 82594. 0.07152 0.10540
75830.15 1.56970 0.1009(34) 88536. 0.07152 0.10254
75837.7 1.56986 0.0951(32) 96936. 0.07153 0.09952
75845.3 1.57002 0.0941(32) 97739. 0.07153 0.09647
75852.91 1.57018 0.0958(32) 95304. 0.07153 0.09352
75860.5 1.57033 0.0923(32) 100103. 0.07153 0.09077
75868.1 1.57049 0.0849(30) 109378. 0.07153 0.08827
75875.7 1.57065 0.0870(31) 105065. 0.07153 0.08603
75883.25 1.57080 0.0829(30) 111221. 0.07153 0.08408
75890.8 1.57096 0.0805(30) 114813. 0.07153 0.08238
75898.41 1.57112 0.0783(29) 118308. 0.07154 0.08091
75906.0 1.57127 0.0794(29) 116885. 0.07154 0.07966
75913.6 1.57143 0.0796(29) 118139. 0.07154 0.07859
75921.2 1.57159 0.0815(30) 113535. 0.07154 0.07768
75928.8 1.57175 0.0749(28) 126322. 0.07154 0.07692
75936.41 1.57190 0.0786(29) 117110. 0.07154 0.07626
75944.0 1.57206 0.0743(28) 125859. 0.07154 0.07571
75951.6 1.57222 0.0750(28) 124566. 0.07154 0.07524
75959.2 1.57238 0.0737(28) 126184. 0.07155 0.07483
75966.8 1.57253 0.0714(28) 131098. 0.07155 0.07449
75974.35 1.57269 0.0753(29) 121208. 0.07155 0.07419
75981.95 1.57285 0.0689(27) 137857. 0.07155 0.07394
75989.55 1.57300 0.0720(28) 128966. 0.07155 0.07372
75997.16 1.57316 0.0745(28) 125903. 0.07155 0.07352
76004.75 1.57332 0.0725(28) 128542. 0.07155 0.07336
76012.3 1.57348 0.0717(28) 130278. 0.07155 0.07321
76019.95 1.57363 0.0724(28) 129699. 0.07156 0.07308
76027.6 1.57379 0.0723(28) 129674. 0.07156 0.07296
76035.2 1.57395 0.0715(28) 130616. 0.07156 0.07286
76042.8 1.57411 0.0705(28) 131497. 0.07156 0.07277
76050.41 1.57426 0.0732(28) 124197. 0.07156 0.07269
76058.0 1.57442 0.0746(28) 124151. 0.07156 0.07262
76065.6 1.57458 0.0752(28) 124620. 0.07156 0.07255
76073.2 1.57474 0.0744(28) 124806. 0.07157 0.07249
76080.8 1.57489 0.0725(28) 127462. 0.07157 0.07244
76088.41 1.57505 0.0757(29) 120008. 0.07157 0.07239
76096.0 1.57521 0.0721(28) 130032. 0.07157 0.07235
76103.6 1.57537 0.0724(28) 127090. 0.07157 0.07231
76111.2 1.57552 0.0738(28) 124857. 0.07157 0.07227
76118.8 1.57568 0.0704(27) 133117. 0.07157 0.07224
76126.45 1.57584 0.0722(28) 128518. 0.07157 0.07221
76134.1 1.57600 0.0729(28) 127657. 0.07158 0.07218
76141.7 1.57615 0.0750(29) 122053. 0.07158 0.07215
76149.3 1.57631 0.0706(28) 131854. 0.07158 0.07213
76156.91 1.57647 0.0666(27) 140153. 0.07158 0.07210
76164.5 1.57663 0.0696(28) 132012. 0.07158 0.07208
76172.1 1.57678 0.0739(28) 123316. 0.07158 0.07206
76179.75 1.57694 0.0734(28) 125634. 0.07158 0.07204
76187.41 1.57710 0.0744(29) 120555. 0.07159 0.07203
76195.0 1.57726 0.0725(28) 126692. 0.07159 0.07201
76202.6 1.57742 0.0747(28) 123195. 0.07159 0.07200
76210.2 1.57757 0.0729(28) 125267. 0.07159 0.07198
76217.85 1.57773 0.0680(27) 138608. 0.07159 0.07197
76225.5 1.57789 0.0736(28) 124322. 0.07159 0.07196
76233.1 1.57805 0.0723(28) 130230. 0.07159 0.07194
76240.7 1.57820 0.0730(28) 127510. 0.07159 0.07193
76248.35 1.57836 0.0726(28) 129719. 0.07160 0.07192
76256.0 1.57852 0.0739(28) 125608. 0.07160 0.07191
76263.6 1.57868 0.0698(27) 134438. 0.07160 0.07190
76271.2 1.57884 0.0694(27) 135546. 0.07160 0.07190
76278.85 1.57899 0.0695(27) 137669. 0.07160 0.07189
76286.5 1.57915 0.0753(29) 120737. 0.07160 0.07188
76294.1 1.57931 0.0715(28) 130688. 0.07160 0.07187
76301.7 1.57947 0.0741(28) 127378. 0.07161 0.07187
76309.35 1.57963 0.0704(27) 134651. 0.07161 0.07186
76317.0 1.57978 0.0660(26) 145133. 0.07161 0.07185
76324.6 1.57994 0.0680(27) 141552. 0.07161 0.07185
76332.25 1.58010 0.0719(27) 133962. 0.07161 0.07184
76339.91 1.58026 0.0755(28) 124678. 0.07161 0.07184
76347.5 1.58041 0.0713(27) 133090. 0.07161 0.07183
76355.16 1.58057 0.0713(27) 132779. 0.07162 0.07183
76362.8 1.58073 0.0703(27) 135226. 0.07162 0.07182
76370.45 1.58089 0.0657(26) 149490. 0.07162 0.07182
76378.1 1.58105 0.0677(27) 136940. 0.07162 0.07182
76385.7 1.58121 0.0647(26) 145699. 0.07162 0.07181
76393.35 1.58136 0.0675(26) 142978. 0.07162 0.07181
76401.0 1.58152 0.0730(28) 130835. 0.07162 0.07180
76408.6 1.58168 0.0730(28) 130825. 0.07163 0.07180
76416.25 1.58184 0.0716(27) 133634. 0.07163 0.07180
76423.91 1.58200 0.0685(27) 140133. 0.07163 0.07180
76431.55 1.58215 0.0663(26) 145898. 0.07163 0.07179
76439.2 1.58231 0.0680(27) 138546. 0.07163 0.07179
76446.85 1.58247 0.0676(27) 141543. 0.07163 0.07179
76454.5 1.58263 0.0745(28) 124332. 0.07163 0.07179
76462.1 1.58279 0.0751(28) 123732. 0.07164 0.07178
76469.75 1.58295 0.0770(29) 121655. 0.07164 0.07178
76477.45 1.58311 0.0723(28) 131146. 0.07164 0.07178
76485.1 1.58326 0.0717(28) 128635. 0.07164 0.07178
76492.7 1.58342 0.0675(27) 141591. 0.07164 0.07178
76500.35 1.58358 0.0661(26) 147810. 0.07164 0.07178
76508.0 1.58374 0.0681(27) 142285. 0.07165 0.07177
76515.66 1.58390 0.0765(29) 121894. 0.07165 0.07177
76523.3 1.58405 0.0715(28) 131357. 0.07165 0.07177
76530.95 1.58421 0.0680(27) 140654. 0.07165 0.07177
76538.66 1.58437 0.0697(27) 136194. 0.07165 0.07177
76546.3 1.58453 0.0679(27) 138335. 0.07165 0.07177
76553.95 1.58469 0.0662(26) 144491. 0.07165 0.07177
76561.6 1.58485 0.0693(27) 137184. 0.07166 0.07177
76569.25 1.58501 0.0711(27) 133842. 0.07166 0.07177
76576.91 1.58516 0.0738(28) 126153. 0.07166 0.07177
76584.55 1.58532 0.0740(28) 127269. 0.07166 0.07177
76592.2 1.58548 0.0712(27) 132970. 0.07166 0.07177
76599.85 1.58564 0.0695(27) 138869. 0.07166 0.07176
76607.55 1.58580 0.0698(27) 136912. 0.07167 0.07176
76615.2 1.58596 0.0650(26) 147722. 0.07167 0.07176
76622.85 1.58612 0.0702(27) 134687. 0.07167 0.07176
76630.55 1.58627 0.0735(28) 127557. 0.07167 0.07176
76638.2 1.58643 0.0717(28) 131351. 0.07167 0.07176
76645.85 1.58659 0.0703(27) 137135. 0.07167 0.07176
76653.5 1.58675 0.0733(28) 126518. 0.07167 0.07176
76661.16 1.58691 0.0738(28) 125872. 0.07168 0.07176
76668.85 1.58707 0.0740(28) 124462. 0.07168 0.07176
76676.5 1.58723 0.0692(27) 135529. 0.07168 0.07176
76684.16 1.58738 0.0695(27) 135914. 0.07168 0.07176
76691.85 1.58754 0.0680(27) 139184. 0.07168 0.07176
76699.5 1.58770 0.0695(27) 133796. 0.07168 0.07176
76707.16 1.58786 0.0701(27) 135509. 0.07169 0.07176
76714.85 1.58802 0.0725(28) 129002. 0.07169 0.07176
76722.55 1.58818 0.0692(27) 135538. 0.07169 0.07176
76730.2 1.58834 0.0722(28) 125808. 0.07169 0.07177
76737.85 1.58850 0.0724(28) 129250. 0.07169 0.07177
76745.55 1.58866 0.0776(29) 117919. 0.07169 0.07177
76753.25 1.58881 0.0757(29) 121107. 0.07170 0.07177
76760.91 1.58897 0.0718(28) 128603. 0.07170 0.07177
76768.55 1.58913 0.0696(27) 134676. 0.07170 0.07177
76776.25 1.58929 0.0704(28) 131525. 0.07170 0.07177
76783.95 1.58945 0.0673(27) 138583. 0.07170 0.07177
76791.6 1.58961 0.0714(28) 128611. 0.07170 0.07177
76799.25 1.58977 0.0756(29) 120351. 0.07171 0.07177
76806.95 1.58993 0.0727(28) 127486. 0.07171 0.07177
76814.66 1.59009 0.0739(28) 125373. 0.07171 0.07177
76822.35 1.59025 0.0722(28) 128275. 0.07171 0.07177
76830.0 1.59040 0.0756(29) 117373. 0.07171 0.07177
76837.66 1.59056 0.0740(28) 123682. 0.07171 0.07177
76845.35 1.59072 0.0759(29) 119486. 0.07171 0.07177
76853.05 1.59088 0.0705(28) 131687. 0.07172 0.07177
76860.75 1.59104 0.0707(28) 129312. 0.07172 0.07178
76868.45 1.59120 0.0704(28) 131176. 0.07172 0.07178
76876.16 1.59136 0.0723(28) 126909. 0.07172 0.07178
76883.8 1.59152 0.0746(29) 119168. 0.07172 0.07178
76891.45 1.59168 0.0721(28) 127573. 0.07172 0.07178
76899.16 1.59184 0.0702(27) 132329. 0.07173 0.07178
76906.85 1.59199 0.0690(27) 134373. 0.07173 0.07178
76914.55 1.59215 0.0726(28) 125705. 0.07173 0.07178
76922.25 1.59231 0.0726(28) 126564. 0.07173 0.07178
76929.95 1.59247 0.0732(28) 125238. 0.07173 0.07178
76937.66 1.59263 0.0732(28) 124966. 0.07173 0.07178
76945.35 1.59279 0.0735(28) 124417. 0.07174 0.07179
76953.05 1.59295 0.0728(28) 126452. 0.07174 0.07179
76960.75 1.59311 0.0712(28) 130498. 0.07174 0.07179
76968.45 1.59327 0.0712(28) 128539. 0.07174 0.07179
76976.16 1.59343 0.0689(27) 133075. 0.07174 0.07179
76983.85 1.59359 0.0692(28) 132112. 0.07175 0.07179
76991.55 1.59375 0.0718(28) 126141. 0.07175 0.07179
76999.25 1.59391 0.0688(27) 133123. 0.07175 0.07179
77006.95 1.59407 0.0708(28) 126765. 0.07175 0.07179
77014.66 1.59423 0.0735(29) 122847. 0.07175 0.07180
77022.35 1.59439 0.0746(28) 123404. 0.07175 0.07180
77030.05 1.59455 0.0729(28) 126461. 0.07176 0.07180
77037.75 1.59470 0.0699(28) 131257. 0.07176 0.07180
77045.45 1.59486 0.0706(28) 129118. 0.07176 0.07180
77053.16 1.59502 0.0698(28) 129778. 0.07176 0.07180
77060.85 1.59518 0.0659(27) 137569. 0.07176 0.07180
77068.55 1.59534 0.0700(28) 131508. 0.07176 0.07180
77076.25 1.59550 0.0738(28) 123431. 0.07177 0.07181
77083.95 1.59566 0.0688(27) 134999. 0.07177 0.07181
77091.66 1.59582 0.0718(28) 127049. 0.07177 0.07181
77099.35 1.59598 0.0708(28) 129346. 0.07177 0.07181
77107.05 1.59614 0.0695(28) 130552. 0.07177 0.07177
77114.75 1.59630 0.0663(27) 139125. 0.07177 0.07177
77122.5 1.59646 0.0689(27) 133198. 0.07178 0.07178
77130.25 1.59662 0.0669(27) 137858. 0.07178 0.07178
77137.95 1.59678 0.0715(28) 128008. 0.07178 0.07178
77145.66 1.59694 0.0729(28) 129154. 0.07178 0.07178
77153.35 1.59710 0.0736(28) 126432. 0.07178 0.07178
77161.05 1.59726 0.0697(27) 133148. 0.07179 0.07179
77168.75 1.59742 0.0715(27) 133072. 0.07179 0.07179
77176.5 1.59758 0.0732(28) 130773. 0.07179 0.07179
77184.25 1.59774 0.0743(28) 125171. 0.07179 0.07179
77191.95 1.59790 0.0715(28) 131778. 0.07179 0.07179
77199.66 1.59806 0.0701(27) 132771. 0.07179 0.07179
77207.35 1.59822 0.0720(28) 127943. 0.07180 0.07180
77215.1 1.59838 0.0677(27) 142019. 0.07180 0.07180
77222.85 1.59854 0.0681(27) 138167. 0.07180 0.07180
77230.55 1.59870 0.0675(27) 138347. 0.07180 0.07180
77238.25 1.59886 0.0700(28) 132150. 0.07180 0.07180
77245.95 1.59901 0.0701(28) 132137. 0.07181 0.07180
77253.7 1.59918 0.0675(27) 140720. 0.07181 0.07181
77261.45 1.59934 0.0725(28) 126350. 0.07181 0.07181
77269.16 1.59950 0.0727(28) 125153. 0.07181 0.07181
77276.91 1.59966 0.0748(29) 121205. 0.07181 0.07181
77284.66 1.59982 0.0708(28) 130138. 0.07181 0.07181
77292.35 1.59998 0.0701(27) 132290. 0.07182 0.07182
77300.05 1.60013 0.0756(29) 121175. 0.07182 0.07182
77307.8 1.60030 0.0722(28) 129590. 0.07182 0.07182
77315.55 1.60046 0.0686(27) 133204. 0.07182 0.07182
77323.25 1.60061 0.0690(27) 132960. 0.07182 0.07182
77331.0 1.60078 0.0722(28) 127752. 0.07183 0.07183
77338.75 1.60094 0.0724(28) 127486. 0.07183 0.07183
77346.45 1.60110 0.0731(28) 123452. 0.07183 0.07183
77354.2 1.60126 0.0710(28) 128543. 0.07183 0.07183
77361.95 1.60142 0.0732(28) 123702. 0.07183 0.07183
77369.7 1.60158 0.0727(28) 125612. 0.07183 0.07183
77377.45 1.60174 0.0743(29) 120361. 0.07184 0.07184
77385.16 1.60190 0.0707(28) 128487. 0.07184 0.07184
77392.91 1.60206 0.0677(27) 136704. 0.07184 0.07184
77400.66 1.60222 0.0731(29) 121226. 0.07184 0.07184
77408.35 1.60238 0.0718(28) 125455. 0.07184 0.07184
77416.1 1.60254 0.0721(28) 125527. 0.07185 0.07185
77423.85 1.60270 0.0731(29) 122664. 0.07185 0.07185
77431.6 1.60286 0.0745(29) 121303. 0.07185 0.07185
77439.35 1.60302 0.0759(29) 119281. 0.07185 0.07185
77447.1 1.60318 0.0754(29) 121162. 0.07185 0.07185
77454.85 1.60334 0.0764(29) 116663. 0.07186 0.07185
77462.55 1.60350 0.0749(29) 118077. 0.07186 0.07186
77470.3 1.60366 0.0702(28) 126842. 0.07186 0.07186
77478.05 1.60382 0.0682(28) 131734. 0.07186 0.07186
77485.8 1.60398 0.0717(28) 126125. 0.07186 0.07186
77493.55 1.60414 0.0774(30) 112107. 0.07186 0.07186
77501.3 1.60430 0.0738(29) 122307. 0.07187 0.07187
77509.05 1.60446 0.0775(30) 113852. 0.07187 0.07187
77516.8 1.60462 0.0733(29) 122890. 0.07187 0.07187
77524.55 1.60478 0.0763(29) 115571. 0.07187 0.07187
77532.3 1.60494 0.0790(30) 113006. 0.07187 0.07187
77540.1 1.60510 0.0769(29) 116840. 0.07188 0.07188
77547.85 1.60526 0.0727(28) 124107. 0.07188 0.07188
77555.6 1.60543 0.0711(28) 128241. 0.07188 0.07188
77563.35 1.60559 0.0705(28) 128117. 0.07188 0.07188
77571.1 1.60575 0.0732(28) 124018. 0.07188 0.07188
77578.85 1.60591 0.0754(29) 118816. 0.07189 0.07189
77586.6 1.60607 0.0757(29) 119621. 0.07189 0.07189
77594.35 1.60623 0.0773(29) 115745. 0.07189 0.07189
77602.1 1.60639 0.0768(29) 116930. 0.07189 0.07189
77609.91 1.60655 0.0741(29) 122462. 0.07189 0.07189
77617.66 1.60671 0.0735(29) 121169. 0.07190 0.07190
77625.41 1.60687 0.0720(28) 125037. 0.07190 0.07190
77633.2 1.60703 0.0706(28) 129532. 0.07190 0.07190
77640.95 1.60719 0.0698(28) 131093. 0.07190 0.07190
77648.7 1.60735 0.0700(28) 130011. 0.07190 0.07190
77656.45 1.60751 0.0743(29) 119317. 0.07191 0.07191
77664.2 1.60767 0.0703(27) 132459. 0.07191 0.07191
77672.0 1.60783 0.0744(29) 122962. 0.07191 0.07191
77679.75 1.60800 0.0738(28) 123253. 0.07191 0.07191
77687.5 1.60816 0.0713(28) 128959. 0.07191 0.07191
77695.3 1.60832 0.0710(28) 129145. 0.07191 0.07191
77703.05 1.60848 0.0716(28) 128301. 0.07192 0.07192
77710.8 1.60864 0.0762(29) 118963. 0.07192 0.07192
77718.6 1.60880 0.0751(29) 121393. 0.07192 0.07192
77726.41 1.60896 0.0771(29) 115781. 0.07192 0.07192
77734.16 1.60912 0.0748(29) 119084. 0.07192 0.07192
77741.91 1.60928 0.0716(28) 127050. 0.07193 0.07193
77749.7 1.60944 0.0713(28) 126855. 0.07193 0.07212
77757.5 1.60960 0.0737(29) 123089. 0.07193 0.07212
77765.25 1.60977 0.0726(28) 124783. 0.07193 0.07213
77773.0 1.60993 0.0764(29) 116837. 0.07193 0.07213
77780.8 1.61009 0.0710(28) 127252. 0.07194 0.07214
77788.6 1.61025 0.0681(28) 130594. 0.07194 0.07214
77796.41 1.61041 0.0715(28) 124082. 0.07194 0.07215
77804.16 1.61057 0.0741(29) 119009. 0.07194 0.07215
77811.91 1.61073 0.0755(29) 116420. 0.07194 0.07215
77819.7 1.61089 0.0704(28) 127294. 0.07195 0.07216
77827.5 1.61105 0.0748(29) 115978. 0.07195 0.07216
77835.3 1.61122 0.0725(29) 121292. 0.07195 0.07217
77843.05 1.61138 0.0720(29) 122536. 0.07195 0.07217
77850.8 1.61154 0.0733(29) 121812. 0.07196 0.07218
77858.6 1.61170 0.0748(29) 119848. 0.07196 0.07218
77866.41 1.61186 0.0738(29) 122952. 0.07196 0.07219
77874.2 1.61202 0.0710(28) 127631. 0.07196 0.07255
77882.0 1.61218 0.0721(28) 125125. 0.07196 0.07256
77889.8 1.61234 0.0713(28) 129338. 0.07197 0.07257
77897.6 1.61251 0.0689(28) 131559. 0.07197 0.07258
77905.35 1.61267 0.0684(28) 129394. 0.07197 0.07259
77913.1 1.61283 0.0704(28) 126852. 0.07197 0.07260
77920.91 1.61299 0.0686(27) 132862. 0.07197 0.07261
77928.7 1.61315 0.0723(28) 124710. 0.07198 0.07262
77936.5 1.61331 0.0720(28) 127620. 0.07198 0.07263
77944.3 1.61347 0.0753(29) 119039. 0.07198 0.07264
77952.1 1.61363 0.0739(29) 122672. 0.07198 0.07265
77959.91 1.61380 0.0707(28) 129317. 0.07198 0.07266
77967.7 1.61396 0.0673(27) 136046. 0.07199 0.07267
77975.5 1.61412 0.0703(28) 129044. 0.07199 0.07268
77983.3 1.61428 0.0747(29) 121453. 0.07199 0.07269
77991.1 1.61444 0.0740(29) 122139. 0.07199 0.07270
77998.91 1.61460 0.0681(27) 137647. 0.07199 0.07271
78006.7 1.61476 0.0719(28) 126479. 0.07200 0.07273
78014.5 1.61493 0.0724(28) 123940. 0.07200 0.07274
78022.3 1.61509 0.0734(29) 120342. 0.07200 0.07275
78030.1 1.61525 0.0770(30) 112497. 0.07200 0.07276
78037.91 1.61541 0.0769(29) 115786. 0.07200 0.07278
78045.7 1.61557 0.0765(29) 116434. 0.07201 0.07279
78053.5 1.61573 0.0747(29) 118461. 0.07201 0.07280
78061.3 1.61589 0.0737(29) 119851. 0.07201 0.07281
78069.1 1.61606 0.0725(28) 124063. 0.07201 0.07283
78076.91 1.61622 0.0773(30) 112907. 0.07202 0.07284
78084.7 1.61638 0.0665(27) 135575. 0.07202 0.07286
78092.5 1.61654 0.0698(28) 128029. 0.07202 0.07287
78100.3 1.61670 0.0699(27) 132405. 0.07202 0.07289
78108.16 1.61686 0.0721(28) 126166. 0.07202 0.07290
78116.0 1.61703 0.0692(28) 131752. 0.07203 0.07292
78123.8 1.61719 0.0710(28) 126023. 0.07203 0.07293
78131.6 1.61735 0.0763(29) 116982. 0.07203 0.07295
78139.41 1.61751 0.0749(29) 120946. 0.07203 0.07296
78147.2 1.61767 0.0746(29) 119545. 0.07203 0.07298
78155.0 1.61783 0.0725(28) 124761. 0.07204 0.07300
78162.85 1.61800 0.0749(29) 120079. 0.07204 0.07301
78170.7 1.61816 0.0704(28) 128227. 0.07204 0.07303
78178.5 1.61832 0.0731(29) 122396. 0.07204 0.07305
78186.3 1.61848 0.0727(28) 124904. 0.07204 0.07307
78194.1 1.61864 0.0740(29) 122323. 0.07205 0.07309
78201.95 1.61881 0.0716(28) 130200. 0.07205 0.07311
78209.8 1.61897 0.0714(28) 127538. 0.07205 0.07313
78217.6 1.61913 0.0705(28) 131463. 0.07205 0.07315
78225.41 1.61929 0.0708(28) 132229. 0.07206 0.07317
78233.2 1.61945 0.0747(29) 121629. 0.07206 0.07319
78241.05 1.61962 0.0708(28) 130172. 0.07206 0.07321
78248.91 1.61978 0.0711(28) 124433. 0.07206 0.07323
78256.7 1.61994 0.0691(28) 131153. 0.07206 0.07325
78264.5 1.62010 0.0770(30) 114121. 0.07207 0.07328
78272.35 1.62026 0.0689(27) 132927. 0.07207 0.07330
78280.2 1.62043 0.0734(29) 120784. 0.07207 0.07332
78288.0 1.62059 0.0755(29) 118045. 0.07207 0.07335
78295.85 1.62075 0.0693(28) 132071. 0.07207 0.07337
78303.7 1.62091 0.0711(28) 126803. 0.07208 0.07340
78311.5 1.62107 0.0734(29) 122510. 0.07208 0.07343
78319.3 1.62124 0.0713(28) 129639. 0.07208 0.07345
78327.16 1.62140 0.0772(29) 118510. 0.07208 0.07348
78335.0 1.62156 0.0754(29) 121182. 0.07209 0.07351
78342.8 1.62172 0.0694(27) 132654. 0.07209 0.07354
78350.66 1.62188 0.0698(28) 131497. 0.07209 0.07357
78358.5 1.62205 0.0715(28) 126919. 0.07209 0.07360
78366.3 1.62221 0.0677(27) 136578. 0.07209 0.07363
78374.16 1.62237 0.0726(28) 125120. 0.07210 0.07367
78382.0 1.62253 0.0746(29) 121645. 0.07210 0.07370
78389.85 1.62270 0.0718(28) 129303. 0.07210 0.07374
78397.7 1.62286 0.0742(29) 121256. 0.07210 0.07377
78405.5 1.62302 0.0721(28) 126476. 0.07211 0.07381
78413.35 1.62318 0.0689(27) 134986. 0.07211 0.07385
78421.2 1.62334 0.0732(28) 123325. 0.07211 0.07389
78429.05 1.62351 0.0744(28) 123621. 0.07211 0.07393
78436.91 1.62367 0.0750(29) 123035. 0.07211 0.07397
78444.7 1.62383 0.0736(29) 123086. 0.07212 0.07401
78452.55 1.62399 0.0688(27) 135388. 0.07212 0.07406
78460.41 1.62416 0.0730(28) 123935. 0.07212 0.07410
78468.25 1.62432 0.0672(27) 138928. 0.07212 0.07415
78476.1 1.62448 0.0726(28) 124173. 0.07213 0.07420
78483.95 1.62464 0.0751(29) 120807. 0.07213 0.07425
78491.8 1.62481 0.0725(28) 127795. 0.07213 0.07431
78499.66 1.62497 0.0776(29) 115313. 0.07213 0.07436
78507.5 1.62513 0.0757(29) 116304. 0.07213 0.07442
78515.35 1.62529 0.0770(29) 116407. 0.07214 0.07448
78523.2 1.62546 0.0797(30) 112497. 0.07214 0.07454
78531.05 1.62562 0.0782(29) 115388. 0.07214 0.07460
78538.91 1.62578 0.0759(29) 117899. 0.07214 0.07466
78546.75 1.62594 0.0735(29) 121696. 0.07215 0.07473
78554.6 1.62611 0.0736(29) 120252. 0.07215 0.07480
78562.45 1.62627 0.0711(28) 127520. 0.07215 0.07488
78570.35 1.62643 0.0755(29) 118973. 0.07215 0.07495
78578.2 1.62660 0.0760(29) 117270. 0.07215 0.07503
78586.05 1.62676 0.0723(28) 123499. 0.07216 0.07511
78593.91 1.62692 0.0750(29) 117251. 0.07216 0.07520
78601.75 1.62708 0.0804(30) 109606. 0.07216 0.07529
78609.66 1.62725 0.0790(30) 112119. 0.07216 0.07538
78617.5 1.62741 0.0786(30) 110775. 0.07217 0.07550
78625.35 1.62757 0.0767(29) 114917. 0.07217 0.07560
78633.2 1.62773 0.0741(29) 120556. 0.07217 0.07571
78641.05 1.62790 0.0774(30) 114441. 0.07217 0.07582
78648.95 1.62806 0.0783(30) 112369. 0.07218 0.07594
78656.8 1.62822 0.0790(30) 110277. 0.07218 0.07606
78664.66 1.62838 0.0749(29) 117987. 0.07218 0.07619
78672.55 1.62855 0.0721(28) 125512. 0.07218 0.07632
78680.41 1.62871 0.0778(30) 114001. 0.07218 0.07652
78688.25 1.62887 0.0798(30) 110617. 0.07219 0.07667
78696.16 1.62904 0.0801(30) 109696. 0.07219 0.07682
78704.0 1.62920 0.0769(30) 114743. 0.07219 0.07699
78711.85 1.62936 0.0760(29) 117193. 0.07219 0.07716
78719.75 1.62953 0.0790(30) 110574. 0.07220 0.07735
78727.66 1.62969 0.0768(29) 115658. 0.07220 0.07755
78735.5 1.62985 0.0789(30) 111368. 0.07220 0.07775
78743.35 1.63001 0.0776(29) 114950. 0.07220 0.07797
78751.25 1.63018 0.0784(30) 112567. 0.07220 0.07821
78759.16 1.63034 0.0765(29) 116524. 0.07221 0.07845
78767.0 1.63050 0.0803(31) 107323. 0.07221 0.07872
78774.85 1.63067 0.0802(30) 109352. 0.07221 0.07899
78782.75 1.63083 0.0838(31) 104292. 0.07221 0.07929
78790.66 1.63099 0.0813(30) 110114. 0.07222 0.07962
78798.55 1.63116 0.0802(30) 110356. 0.07222 0.07996
78806.41 1.63132 0.0779(29) 115479. 0.07222 0.08032
78814.25 1.63148 0.0836(31) 103881. 0.07222 0.08072
78822.16 1.63165 0.0823(31) 105444. 0.07223 0.08114
78830.05 1.63181 0.0825(30) 107794. 0.07223 0.08160
78837.95 1.63197 0.0828(30) 107805. 0.07223 0.08210
78845.8 1.63213 0.0836(31) 104703. 0.07223 0.08263
78853.66 1.63230 0.0814(30) 108779. 0.07223 0.08322
78861.55 1.63246 0.0821(31) 107345. 0.07224 0.08385
78869.45 1.63262 0.0825(30) 107681. 0.07224 0.08455
78877.35 1.63279 0.0843(31) 105759. 0.07224 0.08531
78885.25 1.63295 0.0887(32) 99967. 0.07224 0.08615
78893.16 1.63312 0.0884(31) 101336. 0.07225 0.08708
78901.0 1.63328 0.0869(31) 103035. 0.07225 0.08810
78908.85 1.63344 0.0840(30) 108224. 0.07225 0.08925
78916.75 1.63360 0.0887(32) 100638. 0.07225 0.09056
78924.66 1.63377 0.0855(31) 107233. 0.07226 0.09205
78932.55 1.63393 0.0925(32) 96434. 0.07226 0.09377
78940.45 1.63409 0.0961(33) 91710. 0.07226 0.09581
78948.35 1.63426 0.0927(32) 95979. 0.07226 0.09824
78956.25 1.63442 0.1012(34) 86253. 0.07227 0.10121
78964.16 1.63459 0.111(4) 77412. 0.0723 0.1049
78972.05 1.63475 0.116(4) 74335. 0.0723 0.1094
78979.95 1.63491 0.119(4) 72325. 0.0723 0.1151
78987.85 1.63508 0.126(4) 68380. 0.0723 0.1222
78995.75 1.63524 0.135(4) 62682. 0.0723 0.1310
79003.66 1.63540 0.144(4) 58726. 0.0723 0.1418
79011.55 1.63557 0.162(4) 50878. 0.0723 0.1547
79019.45 1.63573 0.171(5) 48143. 0.0723 0.1700
79027.35 1.63589 0.190(5) 42185. 0.0723 0.1876
79035.25 1.63606 0.204(5) 39186. 0.0723 0.2072
79043.16 1.63622 0.218(5) 36303. 0.0723 0.2281
79051.05 1.63638 0.243(6) 31723. 0.0723 0.2493
79058.95 1.63655 0.262(6) 28852. 0.0723 0.2693
79066.85 1.63671 0.277(6) 27130. 0.0723 0.2865
79074.75 1.63687 0.288(6) 25787. 0.0723 0.2996
79082.66 1.63704 0.300(6) 24360. 0.0723 0.3081
79090.55 1.63720 0.298(6) 24620. 0.0723 0.3124
79098.45 1.63737 0.297(6) 24825. 0.0723 0.3137
79106.4 1.63753 0.302(6) 24674. 0.0723 0.3134
79114.35 1.63769 0.310(7) 23663. 0.0723 0.3132
79122.25 1.63786 0.314(7) 23305. 0.0723 0.3148
79130.16 1.63802 0.319(7) 22957. 0.0723 0.3195
79138.05 1.63819 0.331(7) 21921. 0.0723 0.3284
79145.95 1.63835 0.344(7) 20825. 0.0723 0.3420
79153.85 1.63851 0.368(7) 18986. 0.0723 0.3605
79161.8 1.63868 0.395(8) 17469. 0.0723 0.3831
79169.75 1.63884 0.421(8) 15987. 0.0723 0.4082
79177.66 1.63901 0.438(8) 15181. 0.0723 0.4331
79185.55 1.63917 0.462(8) 14156. 0.0723 0.4544
79193.45 1.63933 0.486(9) 13157. 0.0723 0.4691
79201.35 1.63950 0.483(9) 13446. 0.0723 0.4749
79209.3 1.63966 0.489(9) 13286. 0.0723 0.4710
79217.25 1.63982 0.486(9) 13190. 0.0723 0.4579
79225.16 1.63999 0.445(8) 14911. 0.0723 0.4376
79233.05 1.64015 0.425(8) 15821. 0.0723 0.4119
79241.0 1.64032 0.401(8) 17130. 0.0724 0.3827
79248.95 1.64048 0.357(7) 19669. 0.0724 0.3520
79256.85 1.64064 0.316(7) 22764. 0.0724 0.3216
79264.75 1.64081 0.283(6) 26196. 0.0724 0.2923
79272.66 1.64097 0.255(6) 30000. 0.0724 0.2650
79280.6 1.64114 0.233(5) 33391. 0.0724 0.2400
79288.55 1.64130 0.207(5) 37946. 0.0724 0.2177
79296.45 1.64146 0.193(5) 40767. 0.0724 0.1982
79304.4 1.64163 0.170(5) 48301. 0.0724 0.1813
79312.35 1.64179 0.157(4) 51882. 0.0724 0.1667
79320.25 1.64196 0.144(4) 57396. 0.0724 0.1544
79328.2 1.64212 0.134(4) 63109. 0.0724 0.1438
79336.16 1.64229 0.129(4) 64712. 0.0724 0.1349
79344.05 1.64245 0.127(4) 66124. 0.0724 0.1274
79352.0 1.64261 0.117(4) 73404. 0.0724 0.1209
79359.95 1.64278 0.110(4) 78242. 0.0724 0.1155
79367.85 1.64294 0.115(4) 71306. 0.0724 0.1109
79375.8 1.64311 0.107(4) 79104. 0.0724 0.1069
79383.75 1.64327 0.106(4) 77968. 0.0724 0.1035
79391.7 1.64344 0.1019(35) 82896. 0.07240 0.10059
79399.66 1.64360 0.0961(34) 87037. 0.07240 0.09805
79407.55 1.64376 0.0902(33) 93289. 0.07240 0.09587
79415.5 1.64393 0.0881(32) 97117. 0.07240 0.09395
79423.45 1.64409 0.0936(33) 90309. 0.07241 0.09226
79431.4 1.64426 0.0881(32) 100364. 0.07241 0.09078
79439.35 1.64442 0.0905(33) 94391. 0.07241 0.08947
79447.25 1.64459 0.0884(32) 95438. 0.07241 0.08831
79455.2 1.64475 0.0847(31) 102355. 0.07242 0.08727
79463.16 1.64492 0.0856(31) 101651. 0.07242 0.08634
79471.1 1.64508 0.0879(32) 97287. 0.07242 0.08551
79479.05 1.64524 0.0862(32) 99809. 0.07242 0.08475
79487.0 1.64541 0.0856(31) 101609. 0.07243 0.08407
79494.95 1.64557 0.0808(30) 108621. 0.07243 0.08345
79502.9 1.64574 0.0803(30) 110239. 0.07243 0.08289
79510.85 1.64590 0.0825(31) 105061. 0.07243 0.08237
79518.8 1.64607 0.0760(29) 119753. 0.07244 0.08190
79526.75 1.64623 0.0827(31) 107404. 0.07244 0.08147
79534.7 1.64640 0.0805(30) 111010. 0.07244 0.08107
79542.66 1.64656 0.0794(30) 110863. 0.07244 0.08070
79550.6 1.64673 0.0825(30) 108547. 0.07245 0.08036
79558.55 1.64689 0.0804(30) 109514. 0.07245 0.08005
79566.5 1.64705 0.0704(28) 128177. 0.07245 0.07976
79574.5 1.64722 0.0726(28) 126341. 0.07245 0.07949
79582.45 1.64739 0.0875(32) 98534. 0.07246 0.07924
79590.4 1.64755 0.0779(29) 116034. 0.07246 0.07901
79598.35 1.64771 0.0793(30) 111493. 0.07246 0.07879
79606.3 1.64788 0.0803(30) 110087. 0.07246 0.07859
79614.3 1.64804 0.0756(29) 119768. 0.07247 0.07840
79622.25 1.64821 0.0789(30) 112475. 0.07247 0.07823
79630.2 1.64837 0.0795(30) 110773. 0.07247 0.07807
79638.16 1.64854 0.0732(29) 121482. 0.07247 0.07792
79646.1 1.64870 0.0685(27) 132457. 0.07248 0.07778
79654.1 1.64887 0.0712(28) 126031. 0.07248 0.07765
79662.05 1.64903 0.0753(29) 115897. 0.07248 0.07753
79670.0 1.64920 0.0744(29) 118210. 0.07248 0.07742
79678.0 1.64936 0.0696(28) 130015. 0.07249 0.07731
79685.95 1.64953 0.0697(28) 127082. 0.07249 0.07722
79693.9 1.64969 0.0717(28) 124484. 0.07249 0.07714
79701.9 1.64986 0.0725(28) 124077. 0.07249 0.07706
79709.9 1.65002 0.0751(29) 117772. 0.07250 0.07699
79717.85 1.65019 0.0772(30) 112080. 0.07250 0.07693
79725.8 1.65035 0.0727(28) 125088. 0.07250 0.07687
79733.8 1.65052 0.0783(30) 113415. 0.07250 0.07683
79741.8 1.65068 0.0764(30) 114812. 0.07251 0.07679
79749.75 1.65085 0.0734(29) 120132. 0.07251 0.07675
79757.7 1.65101 0.0779(29) 114940. 0.07251 0.07673
79765.7 1.65118 0.0866(32) 100153. 0.07251 0.07671
79773.66 1.65134 0.0828(31) 103925. 0.07252 0.07671
79781.6 1.65151 0.0819(31) 105791. 0.07252 0.07671
79789.6 1.65167 0.0774(30) 114631. 0.07252 0.07672
79797.6 1.65184 0.0760(29) 116376. 0.07252 0.07674
79805.6 1.65200 0.0773(30) 114679. 0.07253 0.07677
79813.55 1.65217 0.0797(30) 107912. 0.07253 0.07681
79821.5 1.65233 0.0744(29) 119043. 0.07253 0.07686
79829.5 1.65250 0.0759(29) 114975. 0.07253 0.07692
79837.5 1.65267 0.0764(30) 112081. 0.07254 0.07700
79845.5 1.65283 0.0744(29) 116724. 0.07254 0.07710
79853.5 1.65300 0.0747(29) 118688. 0.07254 0.07721
79861.45 1.65316 0.0769(30) 111698. 0.07255 0.07735
79869.4 1.65333 0.0735(29) 119425. 0.07255 0.07750
79877.4 1.65349 0.0740(29) 120786. 0.07255 0.07769
79885.4 1.65366 0.0811(30) 107970. 0.07255 0.07791
79893.4 1.65382 0.0795(30) 109326. 0.07256 0.07817
79901.4 1.65399 0.0791(30) 110418. 0.07256 0.07849
79909.4 1.65415 0.0786(30) 111125. 0.07256 0.07887
79917.4 1.65432 0.0754(29) 115571. 0.07256 0.07935
79925.4 1.65448 0.0813(31) 106128. 0.07257 0.07993
79933.4 1.65465 0.0809(30) 107712. 0.07257 0.08066
79941.4 1.65482 0.0822(31) 105348. 0.07257 0.08156
79949.35 1.65498 0.0854(32) 100737. 0.07257 0.08268
79957.3 1.65515 0.0882(32) 97561. 0.07258 0.08406
79965.3 1.65531 0.0859(32) 100563. 0.07258 0.08575
79973.3 1.65548 0.0855(31) 102001. 0.07258 0.08780
79981.3 1.65564 0.0891(32) 97026. 0.07258 0.09026
79989.3 1.65581 0.0919(33) 92123. 0.07259 0.09315
79997.3 1.65597 0.0981(34) 85337. 0.07259 0.09647
80005.3 1.65614 0.0976(34) 87389. 0.07259 0.10021
80013.3 1.65630 0.0993(34) 85649. 0.07259 0.10430
80021.3 1.65647 0.107(4) 77517. 0.0726 0.1086
80029.3 1.65664 0.107(4) 78692. 0.0726 0.1132
80037.3 1.65680 0.112(4) 74766. 0.0726 0.1178
80045.3 1.65697 0.125(4) 65718. 0.0726 0.1226
80053.35 1.65713 0.128(4) 65138. 0.0726 0.1275
80061.4 1.65730 0.129(4) 65036. 0.0726 0.1323
80069.4 1.65747 0.137(4) 59999. 0.0726 0.1368
80077.4 1.65763 0.143(4) 57438. 0.0726 0.1406
80085.4 1.65780 0.149(4) 55438. 0.0726 0.1433
80093.4 1.65796 0.144(4) 58300. 0.0726 0.1445
80101.4 1.65813 0.140(4) 60386. 0.0726 0.1440
80109.4 1.65829 0.146(4) 56815. 0.0726 0.1419
80117.4 1.65846 0.139(4) 59761. 0.0726 0.1384
80125.4 1.65863 0.134(4) 62607. 0.0726 0.1340
80133.4 1.65879 0.128(4) 66086. 0.0726 0.1289
80141.45 1.65896 0.120(4) 71156. 0.0726 0.1235
80149.5 1.65912 0.121(4) 68815. 0.0726 0.1181
80157.5 1.65929 0.110(4) 77886. 0.0726 0.1129
80165.5 1.65946 0.112(4) 75311. 0.0726 0.1080
80173.5 1.65962 0.108(4) 78251. 0.0726 0.1035
80181.5 1.65979 0.0998(34) 86861. 0.07265 0.09946
80189.5 1.65995 0.0973(34) 88784. 0.07265 0.09592
80197.55 1.66012 0.0933(33) 93620. 0.07265 0.09283
80205.6 1.66029 0.0929(33) 93152. 0.07266 0.09018
80213.6 1.66045 0.0903(32) 95617. 0.07266 0.08793
80221.6 1.66062 0.0878(32) 99901. 0.07266 0.08602
80229.66 1.66078 0.0871(32) 100281. 0.07266 0.08439
80237.7 1.66095 0.0847(31) 102334. 0.07267 0.08302
80245.7 1.66112 0.0860(31) 101300. 0.07267 0.08186
80253.7 1.66128 0.0856(32) 100734. 0.07267 0.08088
80261.75 1.66145 0.0844(31) 102158. 0.07267 0.08004
80269.8 1.66161 0.0828(31) 103405. 0.07268 0.07932
80277.8 1.66178 0.0812(31) 106007. 0.07268 0.07871
80285.8 1.66195 0.0817(31) 105161. 0.07268 0.07818
80293.85 1.66211 0.0792(30) 111873. 0.07268 0.07773
80301.9 1.66228 0.0815(31) 104786. 0.07269 0.07733
80309.9 1.66244 0.0788(30) 108107. 0.07269 0.07699
80317.95 1.66261 0.0799(31) 107321. 0.07269 0.07669
80326.0 1.66278 0.0818(31) 103448. 0.07269 0.07642
80334.0 1.66294 0.0840(32) 100090. 0.07270 0.07618
80342.05 1.66311 0.0753(29) 116061. 0.07270 0.07597
80350.1 1.66328 0.0780(30) 108508. 0.07270 0.07579
80358.1 1.66344 0.0777(30) 108720. 0.07271 0.07562
80366.16 1.66361 0.0751(30) 112696. 0.07271 0.07547
80374.2 1.66378 0.0741(30) 113545. 0.07271 0.07533
80382.2 1.66394 0.0787(31) 107063. 0.07271 0.07521
80390.25 1.66411 0.0825(31) 102614. 0.07272 0.07510
80398.3 1.66428 0.0851(32) 96346. 0.07272 0.07499
80406.35 1.66444 0.0765(30) 112014. 0.07272 0.07490
80414.4 1.66461 0.0798(31) 103806. 0.07272 0.07481
80422.4 1.66477 0.0741(30) 113000. 0.07273 0.07473
80430.45 1.66494 0.0764(30) 109629. 0.07273 0.07466
80438.5 1.66511 0.0757(30) 111089. 0.07273 0.07459
80446.55 1.66527 0.0732(29) 115515. 0.07273 0.07452
80454.6 1.66544 0.0753(30) 110104. 0.07274 0.07446
80462.66 1.66561 0.0718(29) 119698. 0.07274 0.07441
80470.7 1.66577 0.0788(31) 106134. 0.07274 0.07436
80478.75 1.66594 0.0793(31) 106039. 0.07274 0.07413
80486.8 1.66611 0.0764(30) 109299. 0.07275 0.07408
80494.85 1.66627 0.0724(29) 118371. 0.07275 0.07404
80502.9 1.66644 0.0763(30) 111211. 0.07275 0.07400
80510.95 1.66661 0.0769(30) 110605. 0.07276 0.07397
80519.0 1.66677 0.0743(30) 113086. 0.07276 0.07393
80527.05 1.66694 0.0750(30) 111911. 0.07276 0.07390
80535.1 1.66711 0.0701(29) 122391. 0.07276 0.07387
80543.16 1.66727 0.0707(29) 120588. 0.07277 0.07384
80551.2 1.66744 0.0765(30) 109923. 0.07277 0.07382
80559.25 1.66761 0.0756(30) 112901. 0.07277 0.07379
80567.3 1.66777 0.0733(30) 113557. 0.07277 0.07377
80575.35 1.66794 0.0707(29) 119923. 0.07278 0.07374
80583.4 1.66811 0.0710(29) 118144. 0.07278 0.07372
80591.45 1.66827 0.0751(30) 110571. 0.07278 0.07370
80599.55 1.66844 0.0726(29) 117516. 0.07278 0.07334
80607.6 1.66861 0.0710(29) 119146. 0.07279 0.07333
80615.66 1.66877 0.0719(29) 118206. 0.07279 0.07332
80623.75 1.66894 0.0730(29) 117139. 0.07279 0.07330
80631.8 1.66911 0.0729(29) 115974. 0.07279 0.07329
80639.85 1.66928 0.0724(29) 117836. 0.07280 0.07328
80647.9 1.66944 0.0675(28) 128233. 0.07280 0.07327
80655.95 1.66961 0.0707(29) 119813. 0.07280 0.07326
80664.05 1.66978 0.0723(29) 117804. 0.07281 0.07324
80672.1 1.66994 0.0742(30) 114884. 0.07281 0.07324
80680.16 1.67011 0.0780(30) 107579. 0.07281 0.07323
80688.25 1.67028 0.0779(31) 107141. 0.07281 0.07322
80696.3 1.67044 0.0749(30) 111336. 0.07282 0.07321
80704.35 1.67061 0.0676(28) 127296. 0.07282 0.07320
80712.45 1.67078 0.0705(29) 118660. 0.07282 0.07319
80720.5 1.67095 0.0718(29) 115336. 0.07282 0.07319
80728.55 1.67111 0.0706(29) 121420. 0.07283 0.07318
80736.66 1.67128 0.0732(29) 115635. 0.07283 0.07317
80744.75 1.67145 0.0726(29) 115572. 0.07283 0.07317
80752.85 1.67161 0.0762(31) 107452. 0.07283 0.07316
80760.9 1.67178 0.0710(29) 118110. 0.07284 0.07316
80768.95 1.67195 0.0712(29) 120206. 0.07284 0.07315
80777.05 1.67212 0.0721(29) 117691. 0.07284 0.07315
80785.16 1.67228 0.0711(29) 119916. 0.07285 0.07314
80793.2 1.67245 0.0762(30) 109221. 0.07285 0.07314
80801.25 1.67262 0.0691(28) 125363. 0.07285 0.07313
80809.35 1.67278 0.0723(29) 115159. 0.07285 0.07313
80817.45 1.67295 0.0694(28) 123140. 0.07286 0.07313
80825.55 1.67312 0.0685(28) 126048. 0.07286 0.07312
80833.6 1.67329 0.0692(28) 124730. 0.07286 0.07312
80841.66 1.67345 0.0715(29) 119945. 0.07286 0.07312
80849.75 1.67362 0.0687(28) 126415. 0.07287 0.07312
80857.85 1.67379 0.0732(29) 116360. 0.07287 0.07311
80865.95 1.67396 0.0764(30) 110919. 0.07287 0.07311
80874.05 1.67412 0.0757(30) 113096. 0.07287 0.07311
80882.16 1.67429 0.0720(29) 119775. 0.07288 0.07311
80890.25 1.67446 0.0743(30) 113932. 0.07288 0.07310
80898.3 1.67463 0.0705(29) 119987. 0.07288 0.07310
80906.35 1.67479 0.0693(29) 122752. 0.07289 0.07310
80914.45 1.67496 0.0689(28) 127491. 0.07289 0.07310
80922.55 1.67513 0.0712(29) 121907. 0.07289 0.07310
80930.66 1.67530 0.0720(29) 119469. 0.07289 0.07310
80938.75 1.67546 0.0711(29) 122383. 0.07290 0.07309
80946.85 1.67563 0.0736(29) 115347. 0.07290 0.07309
80954.95 1.67580 0.0704(29) 122294. 0.07290 0.07309
80963.05 1.67597 0.0723(29) 119781. 0.07290 0.07309
80971.16 1.67613 0.0751(29) 115270. 0.07291 0.07309
80979.25 1.67630 0.0718(29) 119222. 0.07291 0.07309
80987.35 1.67647 0.0696(28) 123262. 0.07291 0.07309
80995.45 1.67664 0.0721(29) 117333. 0.07292 0.07309
81003.55 1.67680 0.0725(29) 116231. 0.07292 0.07309
81011.66 1.67697 0.0738(30) 114612. 0.07292 0.07309
81019.75 1.67714 0.0729(29) 115972. 0.07292 0.07309
81027.85 1.67731 0.0710(29) 120930. 0.07293 0.07309
81035.95 1.67748 0.0792(31) 105093. 0.07293 0.07309
81044.05 1.67764 0.0751(30) 114617. 0.07293 0.07309
81052.16 1.67781 0.0736(29) 115171. 0.07293 0.07309
81060.25 1.67798 0.0689(28) 124512. 0.07294 0.07309
81068.35 1.67815 0.0683(28) 124764. 0.07294 0.07309
81076.45 1.67831 0.0701(29) 121832. 0.07294 0.07309
81084.55 1.67848 0.0685(28) 125852. 0.07294 0.07309
81092.66 1.67865 0.0728(29) 115324. 0.07295 0.07309
81100.75 1.67882 0.0709(29) 121003. 0.07295 0.07309
81108.85 1.67898 0.0747(30) 110968. 0.07295 0.07309
81117.0 1.67915 0.0720(29) 117241. 0.07296 0.07309
81125.16 1.67932 0.0723(29) 115620. 0.07296 0.07309
81133.25 1.67949 0.0707(29) 119061. 0.07296 0.07309
81141.35 1.67966 0.0730(29) 116913. 0.07296 0.07309
81149.45 1.67983 0.0747(30) 114852. 0.07297 0.07309
81157.55 1.67999 0.0765(30) 108705. 0.07297 0.07309
81165.66 1.68016 0.0685(28) 126385. 0.07297 0.07309
81173.75 1.68033 0.0716(29) 117865. 0.07297 0.07310
81181.91 1.68050 0.0713(29) 121899. 0.07298 0.07310
81190.05 1.68067 0.0746(30) 111890. 0.07298 0.07310
81198.16 1.68083 0.0715(29) 116896. 0.07298 0.07310
81206.25 1.68100 0.0759(30) 109339. 0.07299 0.07310
81214.35 1.68117 0.0705(29) 120431. 0.07299 0.07310
81222.5 1.68134 0.0720(29) 117450. 0.07299 0.07310
81230.66 1.68151 0.0700(29) 121956. 0.07299 0.07310
81238.75 1.68167 0.0756(30) 109277. 0.07300 0.07310
81246.85 1.68184 0.0754(30) 110100. 0.07300 0.07310
81255.0 1.68201 0.0694(28) 124129. 0.07300 0.07311
81263.16 1.68218 0.0759(31) 107247. 0.07300 0.07311
81271.25 1.68235 0.0706(29) 116919. 0.07301 0.07311
81279.35 1.68251 0.0694(29) 118229. 0.07301 0.07311
81287.5 1.68268 0.0724(30) 113623. 0.07301 0.07311
81295.66 1.68285 0.0713(29) 115440. 0.07301 0.07311
81303.75 1.68302 0.0744(30) 108733. 0.07302 0.07311
81311.91 1.68319 0.0706(29) 118240. 0.07302 0.07312
81320.05 1.68336 0.0741(30) 110524. 0.07302 0.07312
81328.16 1.68352 0.0717(29) 115067. 0.07303 0.07312
81336.3 1.68369 0.0692(29) 121733. 0.07303 0.07312
81344.45 1.68386 0.0714(29) 117163. 0.07303 0.07312
81352.55 1.68403 0.0739(30) 109886. 0.07303 0.07312
81360.7 1.68420 0.0739(30) 111948. 0.07304 0.07312
81368.85 1.68437 0.0729(30) 112866. 0.07304 0.07313
81376.95 1.68454 0.0782(31) 101432. 0.07304 0.07313
81385.1 1.68470 0.0735(30) 112202. 0.07304 0.07313
81393.25 1.68487 0.0727(30) 112143. 0.07305 0.07313
81401.41 1.68504 0.0706(29) 119655. 0.07305 0.07313
81409.55 1.68521 0.0778(31) 105222. 0.07305 0.07313
81417.66 1.68538 0.0767(31) 106937. 0.07306 0.07314
81425.8 1.68555 0.0745(30) 111626. 0.07306 0.07314
81433.95 1.68572 0.0719(29) 116147. 0.07306 0.07312
81442.1 1.68588 0.0700(29) 120470. 0.07306 0.07312
81450.25 1.68605 0.0726(30) 114466. 0.07307 0.07313
81458.41 1.68622 0.0705(29) 119808. 0.07307 0.07313
81466.55 1.68639 0.0685(29) 121840. 0.07307 0.07313
81474.7 1.68656 0.0705(29) 117484. 0.07307 0.07313
81482.85 1.68673 0.0741(30) 111585. 0.07308 0.07313
81490.95 1.68690 0.0746(30) 110658. 0.07308 0.07314
81499.1 1.68706 0.0770(31) 105095. 0.07308 0.07308
81507.25 1.68723 0.0706(29) 117860. 0.07309 0.07312
81515.41 1.68740 0.0713(29) 117420. 0.07309 0.07312
81523.6 1.68757 0.0744(30) 111805. 0.07309 0.07313
81531.75 1.68774 0.0724(29) 116674. 0.07309 0.07313
81539.91 1.68791 0.0731(30) 114413. 0.07310 0.07313
81548.05 1.68808 0.0692(29) 121260. 0.07310 0.07314
81556.2 1.68825 0.0707(29) 116973. 0.07310 0.07314
81564.35 1.68841 0.0724(30) 112287. 0.07310 0.07314
81572.5 1.68858 0.0686(28) 123425. 0.07311 0.07315
81580.66 1.68875 0.0728(30) 112296. 0.07311 0.07315
81588.8 1.68892 0.0721(29) 115305. 0.07311 0.07315
81597.0 1.68909 0.0759(31) 107051. 0.07312 0.07316
81605.16 1.68926 0.0766(31) 103251. 0.07312 0.07316
81613.3 1.68943 0.0754(31) 106272. 0.07312 0.07316
81621.45 1.68960 0.0766(31) 104316. 0.07312 0.07316
81629.6 1.68977 0.0741(30) 110047. 0.07313 0.07317
81637.8 1.68994 0.0811(32) 96326. 0.07313 0.07317
81645.95 1.69010 0.0787(31) 101416. 0.07313 0.07317
81654.1 1.69027 0.0767(31) 104689. 0.07313 0.07323
81662.3 1.69044 0.0742(30) 109721. 0.07314 0.07323
81670.45 1.69061 0.0779(31) 102394. 0.07314 0.07327
81678.6 1.69078 0.0754(30) 107721. 0.07314 0.07327
81686.8 1.69095 0.0759(31) 106075. 0.07315 0.07328
81694.95 1.69112 0.0781(32) 100603. 0.07315 0.07328
81703.1 1.69129 0.0698(29) 118319. 0.07315 0.07328
81711.3 1.69146 0.0705(29) 116396. 0.07315 0.07329
81719.5 1.69163 0.0725(30) 114775. 0.07316 0.07329
81727.66 1.69180 0.0764(31) 105034. 0.07316 0.07330
81735.8 1.69196 0.0733(30) 111400. 0.07316 0.07330
81744.0 1.69213 0.0707(29) 116219. 0.07316 0.07331
81752.16 1.69230 0.0735(30) 109061. 0.07317 0.07331
81760.3 1.69247 0.0791(32) 100613. 0.07317 0.07332
81768.5 1.69264 0.0750(30) 108519. 0.07317 0.07332
81776.7 1.69281 0.0781(31) 104378. 0.07318 0.07333
81784.85 1.69298 0.0813(32) 99356. 0.07318 0.07333
81793.0 1.69315 0.0782(31) 103604. 0.07318 0.07333
81801.2 1.69332 0.0687(29) 121738. 0.07318 0.07334
81809.41 1.69349 0.0704(29) 117204. 0.07319 0.07334
81817.6 1.69366 0.0768(31) 106292. 0.07319 0.07335
81825.8 1.69383 0.0796(31) 100993. 0.07319 0.07335
81833.95 1.69400 0.0710(29) 115795. 0.07319 0.07336
81842.1 1.69416 0.0723(30) 113702. 0.07320 0.07336
81850.3 1.69433 0.0740(30) 110397. 0.07320 0.07337
81858.5 1.69450 0.0764(30) 108021. 0.07320 0.07337
81866.7 1.69467 0.0778(31) 105902. 0.07321 0.07338
81874.91 1.69484 0.0794(32) 100489. 0.07321 0.07338
81883.05 1.69501 0.0741(30) 108388. 0.07321 0.07339
81891.2 1.69518 0.0720(30) 114653. 0.07321 0.07340
81899.41 1.69535 0.0753(30) 110119. 0.07322 0.07340
81907.6 1.69552 0.0765(30) 107500. 0.07322 0.07341
81915.8 1.69569 0.0759(30) 107632. 0.07322 0.07341
81924.0 1.69586 0.0728(30) 112674. 0.07322 0.07342
81932.2 1.69603 0.0721(30) 113556. 0.07323 0.07342
81940.41 1.69620 0.0710(29) 117982. 0.07323 0.07343
81948.6 1.69637 0.0754(30) 109907. 0.07323 0.07343
81956.8 1.69654 0.0723(29) 115151. 0.07324 0.07344
81965.0 1.69671 0.0703(29) 116243. 0.07324 0.07345
81973.2 1.69688 0.0730(30) 111756. 0.07324 0.07345
81981.41 1.69705 0.0742(30) 110760. 0.07324 0.07346
81989.6 1.69722 0.0694(29) 120776. 0.07325 0.07346
81997.8 1.69739 0.0740(30) 110262. 0.07325 0.07347
82006.0 1.69756 0.0740(30) 110417. 0.07325 0.07348
82014.2 1.69773 0.0753(31) 106876. 0.07325 0.07348
82022.41 1.69790 0.0717(30) 114776. 0.07326 0.07349
82030.6 1.69807 0.0734(30) 107987. 0.07326 0.07350
82038.8 1.69824 0.0718(30) 111163. 0.07326 0.07350
82047.0 1.69841 0.0716(30) 112949. 0.07327 0.07351
82055.2 1.69858 0.0706(29) 115191. 0.07327 0.07352
82063.41 1.69875 0.0736(30) 110575. 0.07327 0.07352
82071.6 1.69892 0.0799(32) 98471. 0.07327 0.07353
82079.8 1.69909 0.0740(30) 107577. 0.07328 0.07354
82088.0 1.69926 0.0801(32) 96399. 0.07328 0.07355
82096.2 1.69942 0.0755(31) 106316. 0.07328 0.07355
82104.41 1.69959 0.0727(30) 113573. 0.07328 0.07356
82112.6 1.69976 0.0781(31) 103025. 0.07329 0.07357
82120.85 1.69994 0.0732(30) 111830. 0.07329 0.07358
82129.1 1.70011 0.0736(30) 109625. 0.07329 0.07358
82137.3 1.70028 0.0762(31) 104171. 0.07330 0.07359
82145.5 1.70045 0.0757(31) 105703. 0.07330 0.07360
82153.7 1.70062 0.0759(31) 106828. 0.07330 0.07361
82161.91 1.70079 0.0738(30) 109104. 0.07330 0.07362
82170.1 1.70095 0.0741(31) 106378. 0.07331 0.07363
82178.35 1.70113 0.0722(30) 111936. 0.07331 0.07364
82186.6 1.70130 0.0783(31) 100872. 0.07331 0.07364
82194.8 1.70147 0.0782(31) 100885. 0.07331 0.07365
82203.0 1.70164 0.0718(30) 111664. 0.07332 0.07366
82211.2 1.70181 0.0727(30) 109233. 0.07332 0.07367
82219.45 1.70198 0.0770(31) 103228. 0.07332 0.07368
82227.7 1.70215 0.0813(32) 97624. 0.07333 0.07369
82235.91 1.70232 0.0807(32) 98300. 0.07333 0.07370
82244.1 1.70249 0.0781(31) 101051. 0.07333 0.07371
82252.3 1.70266 0.0755(31) 104698. 0.07333 0.07373
82260.55 1.70283 0.0758(31) 103763. 0.07334 0.07374
82268.8 1.70300 0.0784(32) 99172. 0.07334 0.07375
82277.0 1.70317 0.0785(32) 98934. 0.07334 0.07376
82285.25 1.70334 0.0705(29) 115577. 0.07334 0.07377
82293.5 1.70351 0.0755(31) 104206. 0.07335 0.07378
82301.7 1.70368 0.0815(32) 94981. 0.07335 0.07380
82309.91 1.70385 0.0800(32) 97463. 0.07335 0.07381
82318.16 1.70402 0.0717(30) 112811. 0.07336 0.07382
82326.41 1.70419 0.0734(30) 107530. 0.07336 0.07384
82334.6 1.70436 0.0719(30) 111121. 0.07336 0.07385
82342.85 1.70453 0.0722(30) 110800. 0.07336 0.07387
82351.1 1.70470 0.0768(31) 101712. 0.07337 0.07388
82359.35 1.70487 0.0743(30) 108953. 0.07337 0.07390
82367.6 1.70504 0.0742(31) 106303. 0.07337 0.07391
82375.8 1.70521 0.0713(30) 112404. 0.07337 0.07393
82384.05 1.70538 0.0763(31) 102544. 0.07338 0.07395
82392.3 1.70555 0.0738(30) 108851. 0.07338 0.07397
82400.5 1.70572 0.0773(31) 103283. 0.07338 0.07399
82408.75 1.70590 0.0754(31) 107327. 0.07339 0.07400
82417.0 1.70607 0.0764(31) 105570. 0.07339 0.07402
82425.25 1.70624 0.0730(30) 111678. 0.07339 0.07405
82433.5 1.70641 0.0735(31) 107263. 0.07339 0.07407
82441.75 1.70658 0.0691(29) 116594. 0.07340 0.07409
82450.0 1.70675 0.0689(29) 118428. 0.07340 0.07411
82458.2 1.70692 0.0726(30) 112262. 0.07340 0.07414
82466.45 1.70709 0.0715(30) 114671. 0.07340 0.07416
82474.7 1.70726 0.0736(30) 108760. 0.07341 0.07419
82482.95 1.70743 0.0693(29) 119627. 0.07341 0.07421
82491.2 1.70760 0.0728(30) 110210. 0.07341 0.07424
82499.45 1.70777 0.0701(29) 117998. 0.07342 0.07427
82507.7 1.70794 0.0722(30) 111407. 0.07342 0.07430
82515.95 1.70811 0.0705(29) 116600. 0.07342 0.07434
82524.2 1.70829 0.0731(30) 111419. 0.07342 0.07437
82532.45 1.70846 0.0694(29) 121223. 0.07343 0.07441
82540.7 1.70863 0.0764(31) 107002. 0.07343 0.07444
82548.95 1.70880 0.0711(29) 118970. 0.07343 0.07448
82557.25 1.70897 0.0688(29) 121216. 0.07343 0.07453
82565.5 1.70914 0.0697(29) 116594. 0.07344 0.07457
82573.75 1.70931 0.0691(29) 119657. 0.07344 0.07462
82582.0 1.70948 0.0738(30) 109506. 0.07344 0.07466
82590.25 1.70965 0.0675(29) 122966. 0.07345 0.07472
82598.5 1.70982 0.0707(29) 115648. 0.07345 0.07477
82606.75 1.70999 0.0713(29) 115504. 0.07345 0.07483
82615.05 1.71017 0.0698(29) 119446. 0.07345 0.07489
82623.3 1.71034 0.0735(30) 112650. 0.07346 0.07496
82631.55 1.71051 0.0704(29) 119664. 0.07346 0.07503
82639.8 1.71068 0.0724(30) 112420. 0.07346 0.07511
82648.05 1.71085 0.0748(30) 109020. 0.07346 0.07519
82656.35 1.71102 0.0737(30) 111691. 0.07347 0.07527
82664.6 1.71119 0.0763(31) 106077. 0.07347 0.07537
82672.85 1.71136 0.0782(31) 102788. 0.07347 0.07547
82681.16 1.71153 0.0732(30) 112419. 0.07348 0.07558
82689.41 1.71171 0.0768(31) 104697. 0.07348 0.07570
82697.66 1.71188 0.0756(31) 107053. 0.07348 0.07582
82705.95 1.71205 0.0786(32) 99887. 0.07348 0.07596
82714.25 1.71222 0.0782(31) 101380. 0.07349 0.07612
82722.5 1.71239 0.0812(32) 95889. 0.07349 0.07629
82730.75 1.71256 0.0806(32) 99438. 0.07349 0.07647
82739.05 1.71273 0.0783(31) 104216. 0.07349 0.07668
82747.35 1.71291 0.0755(31) 106128. 0.07350 0.07691
82755.6 1.71308 0.0773(31) 102324. 0.07350 0.07717
82763.85 1.71325 0.0799(32) 99595. 0.07350 0.07747
82772.16 1.71342 0.0807(32) 98594. 0.07351 0.07782
82780.41 1.71359 0.0796(32) 100114. 0.07351 0.07822
82788.66 1.71376 0.0833(33) 93881. 0.07351 0.07871
82796.95 1.71393 0.0862(33) 90451. 0.07351 0.07930
82805.25 1.71410 0.0806(32) 99740. 0.07352 0.08004
82813.55 1.71428 0.0849(33) 91674. 0.07352 0.08095
82821.85 1.71445 0.0853(33) 91504. 0.07352 0.08210
82830.1 1.71462 0.0898(34) 86114. 0.07352 0.08352
82838.35 1.71479 0.0927(34) 84584. 0.07353 0.08527
82846.66 1.71496 0.0939(35) 82371. 0.07353 0.08742
82854.95 1.71513 0.0906(34) 86654. 0.07353 0.09000
82863.25 1.71530 0.097(4) 79943. 0.0735 0.0930
82871.55 1.71548 0.0950(35) 82714. 0.07354 0.09647
82879.85 1.71565 0.102(4) 75977. 0.0735 0.1003
82888.1 1.71582 0.110(4) 69751. 0.0735 0.1043
82896.35 1.71599 0.109(4) 70797. 0.0735 0.1083
82904.66 1.71616 0.109(4) 71152. 0.0735 0.1120
82912.95 1.71633 0.114(4) 66539. 0.0736 0.1150
82921.25 1.71651 0.108(4) 72459. 0.0736 0.1172
82929.55 1.71668 0.114(4) 67523. 0.0736 0.1184
82937.85 1.71685 0.112(4) 68677. 0.0736 0.1187
82946.16 1.71702 0.113(4) 68075. 0.0736 0.1183
82954.45 1.71719 0.112(4) 69021. 0.0736 0.1176
82962.75 1.71736 0.110(4) 70076. 0.0736 0.1168
82971.05 1.71754 0.112(4) 68070. 0.0736 0.1164
82979.35 1.71771 0.116(4) 65387. 0.0736 0.1164
82987.66 1.71788 0.117(4) 64377. 0.0736 0.1174
82995.95 1.71805 0.122(4) 61732. 0.0736 0.1193
83004.25 1.71822 0.122(4) 62268. 0.0736 0.1224
83012.55 1.71840 0.130(4) 57850. 0.0736 0.1267
83020.85 1.71857 0.143(4) 52201. 0.0736 0.1321
83029.16 1.71874 0.145(4) 51470. 0.0736 0.1384
83037.45 1.71891 0.148(4) 50402. 0.0736 0.1451
83045.75 1.71908 0.154(5) 47886. 0.0736 0.1517
83054.05 1.71925 0.164(5) 44253. 0.0736 0.1574
83062.35 1.71943 0.170(5) 42065. 0.0736 0.1616
83070.66 1.71960 0.167(5) 43634. 0.0736 0.1638
83078.95 1.71977 0.172(5) 42187. 0.0736 0.1637
83087.25 1.71994 0.169(5) 43710. 0.0736 0.1615
83095.55 1.72011 0.164(5) 44694. 0.0736 0.1574
83103.85 1.72029 0.162(5) 45187. 0.0736 0.1519
83112.16 1.72046 0.157(5) 46646. 0.0736 0.1455
83120.45 1.72063 0.147(4) 50510. 0.0736 0.1386
83128.8 1.72080 0.141(4) 52449. 0.0736 0.1316
83137.16 1.72097 0.127(4) 59627. 0.0736 0.1247
83145.45 1.72115 0.122(4) 62168. 0.0736 0.1183
83153.75 1.72132 0.120(4) 63184. 0.0736 0.1125
83162.05 1.72149 0.110(4) 69926. 0.0736 0.1073
83170.35 1.72166 0.109(4) 69118. 0.0736 0.1027
83178.7 1.72184 0.104(4) 73409. 0.0736 0.0987
83187.05 1.72201 0.099(4) 76701. 0.0736 0.0952
83195.35 1.72218 0.0889(34) 87005. 0.07364 0.09230
83203.66 1.72235 0.0891(34) 85824. 0.07365 0.08984
83211.95 1.72252 0.0879(34) 88340. 0.07365 0.08776
83220.3 1.72270 0.0892(34) 87225. 0.07365 0.08600
83228.66 1.72287 0.0870(34) 89087. 0.07365 0.08452
83236.95 1.72304 0.0877(34) 87639. 0.07366 0.08327
83245.25 1.72321 0.0864(33) 89464. 0.07366 0.08221
83253.6 1.72339 0.0839(33) 93404. 0.07366 0.08131
83261.95 1.72356 0.0857(34) 88843. 0.07367 0.08054
83270.25 1.72373 0.0852(34) 88802. 0.07367 0.07988
83278.55 1.72390 0.0804(32) 96980. 0.07367 0.07931
83286.91 1.72408 0.0756(31) 103209. 0.07367 0.07882
83295.25 1.72425 0.0751(31) 103897. 0.07368 0.07839
83303.55 1.72442 0.0832(33) 91388. 0.07368 0.07801
83311.91 1.72459 0.0807(32) 95276. 0.07368 0.07768
83320.25 1.72477 0.0781(32) 98158. 0.07368 0.07739
83328.55 1.72494 0.0758(31) 102632. 0.07369 0.07713
83336.85 1.72511 0.0801(32) 95609. 0.07369 0.07690
83345.2 1.72528 0.0760(31) 102996. 0.07369 0.07670
83353.55 1.72545 0.0780(32) 98750. 0.07369 0.07651
83361.85 1.72563 0.0773(32) 99462. 0.07370 0.07635
83370.2 1.72580 0.0791(32) 96727. 0.07370 0.07619
83378.55 1.72597 0.0752(31) 102885. 0.07370 0.07606
83386.91 1.72615 0.0772(32) 99129. 0.07371 0.07593
83395.25 1.72632 0.0768(32) 100251. 0.07371 0.07582
83403.55 1.72649 0.0791(32) 95500. 0.07371 0.07571
83411.91 1.72666 0.0728(30) 108376. 0.07371 0.07562
83420.25 1.72684 0.0767(32) 98800. 0.07372 0.07553
83428.6 1.72701 0.0740(31) 104589. 0.07372 0.07544
83436.95 1.72718 0.0704(30) 111010. 0.07372 0.07537
83445.25 1.72735 0.0758(31) 100969. 0.07372 0.07530
83453.6 1.72753 0.0831(33) 91593. 0.07373 0.07523
83461.95 1.72770 0.0775(32) 100341. 0.07373 0.07517
83470.3 1.72787 0.0752(31) 103531. 0.07373 0.07511
83478.66 1.72804 0.0791(32) 96693. 0.07373 0.07506
83487.0 1.72822 0.0796(32) 97508. 0.07374 0.07501
83495.35 1.72839 0.0749(31) 104293. 0.07374 0.07496
83503.7 1.72856 0.0710(30) 109988. 0.07374 0.07492
83512.05 1.72874 0.0682(30) 114646. 0.07375 0.07488
83520.41 1.72891 0.0748(31) 103385. 0.07375 0.07484
83528.75 1.72908 0.0769(32) 99527. 0.07375 0.07480
83537.1 1.72925 0.0741(31) 104610. 0.07375 0.07477
83545.45 1.72943 0.0788(32) 95646. 0.07376 0.07474
83553.8 1.72960 0.0785(32) 98286. 0.07376 0.07471
83562.2 1.72977 0.0787(32) 97341. 0.07376 0.07468
83570.55 1.72995 0.0766(32) 99429. 0.07376 0.07465
83578.91 1.73012 0.0720(30) 107666. 0.07377 0.07462
83587.25 1.73029 0.0747(32) 100059. 0.07377 0.07460
83595.6 1.73047 0.0747(31) 101470. 0.07377 0.07458
83603.95 1.73064 0.0746(31) 102072. 0.07377 0.07455
83612.3 1.73081 0.0708(30) 110687. 0.07378 0.07453
83620.7 1.73099 0.0760(31) 101210. 0.07378 0.07451
83629.05 1.73116 0.0744(31) 103852. 0.07378 0.07449
83637.41 1.73133 0.0762(31) 102118. 0.07379 0.07448
83645.8 1.73150 0.0741(31) 106606. 0.07379 0.07446
83654.16 1.73168 0.0754(31) 102649. 0.07379 0.07444
83662.5 1.73185 0.0727(30) 108149. 0.07379 0.07443
83670.91 1.73202 0.0673(29) 116728. 0.07380 0.07441
83679.25 1.73220 0.0746(31) 100943. 0.07380 0.07440
83687.6 1.73237 0.0737(31) 104945. 0.07380 0.07439
83696.0 1.73254 0.0714(30) 110291. 0.07380 0.07437
83704.35 1.73272 0.0755(31) 100827. 0.07381 0.07436
83712.7 1.73289 0.0710(30) 108932. 0.07381 0.07435
83721.1 1.73306 0.0713(30) 110746. 0.07381 0.07434
83729.45 1.73324 0.0777(32) 98580. 0.07381 0.07433
83737.8 1.73341 0.0754(31) 101916. 0.07382 0.07432
83746.2 1.73358 0.0727(30) 108055. 0.07382 0.07431
83754.6 1.73376 0.0749(31) 103617. 0.07382 0.07430
83762.95 1.73393 0.0720(30) 108950. 0.07383 0.07429
83771.3 1.73410 0.0749(31) 104354. 0.07383 0.07428
83779.7 1.73428 0.0756(31) 101546. 0.07383 0.07428
83788.1 1.73445 0.0757(31) 101850. 0.07383 0.07427
83796.5 1.73462 0.0760(31) 101823. 0.07384 0.07426
83804.85 1.73480 0.0781(32) 97163. 0.07384 0.07425
83813.2 1.73497 0.0769(32) 98948. 0.07384 0.07425
83821.6 1.73514 0.0756(32) 100420. 0.07384 0.07424
83830.0 1.73532 0.0761(31) 101205. 0.07385 0.07424
83838.41 1.73549 0.0763(32) 100569. 0.07385 0.07423
83846.8 1.73567 0.0715(30) 109902. 0.07385 0.07422
83855.16 1.73584 0.0741(31) 104488. 0.07385 0.07422
83863.5 1.73601 0.0750(31) 103870. 0.07386 0.07421
83871.91 1.73619 0.0734(31) 106969. 0.07386 0.07421
83880.3 1.73636 0.0752(31) 102906. 0.07386 0.07420
83888.7 1.73653 0.0740(31) 105100. 0.07386 0.07420
83897.1 1.73671 0.0784(32) 97635. 0.07387 0.07420
83905.5 1.73688 0.0768(31) 102242. 0.07387 0.07419
83913.91 1.73706 0.0750(31) 104537. 0.07387 0.07419
83922.25 1.73723 0.0732(31) 106054. 0.07388 0.07419
83930.6 1.73740 0.0726(31) 105892. 0.07388 0.07418
83939.0 1.73757 0.0728(31) 106084. 0.07388 0.07418
83947.41 1.73775 0.0736(31) 104877. 0.07388 0.07418
83955.8 1.73792 0.0708(30) 109008. 0.07389 0.07417
83964.2 1.73810 0.0735(31) 103501. 0.07389 0.07417
83972.6 1.73827 0.0722(31) 106421. 0.07389 0.07417
83981.0 1.73844 0.0724(30) 107666. 0.07389 0.07417
83989.41 1.73862 0.0728(31) 106783. 0.07390 0.07416
83997.8 1.73879 0.0710(30) 107863. 0.07390 0.07416
84006.2 1.73897 0.0723(31) 105719. 0.07390 0.07416
84014.6 1.73914 0.0716(31) 107333. 0.07390 0.07416
84023.0 1.73931 0.0715(31) 107015. 0.07391 0.07416
84031.41 1.73949 0.0742(31) 103310. 0.07391 0.07415
84039.8 1.73966 0.0737(31) 103777. 0.07391 0.07415
84048.2 1.73984 0.0695(30) 110109. 0.07391 0.07415
84056.6 1.74001 0.0701(30) 109174. 0.07392 0.07415
84065.0 1.74018 0.0681(30) 113812. 0.07392 0.07415
84073.41 1.74036 0.0708(30) 107884. 0.07392 0.07415
84081.8 1.74053 0.0689(30) 114507. 0.07393 0.07415
84090.25 1.74071 0.0742(31) 103056. 0.07393 0.07415
84098.7 1.74088 0.0776(32) 96520. 0.07393 0.07414
84107.1 1.74105 0.0729(31) 105613. 0.07393 0.07414
84115.5 1.74123 0.0700(30) 110055. 0.07394 0.07414
84123.91 1.74140 0.0717(31) 106650. 0.07394 0.07414
84132.3 1.74158 0.0738(31) 104020. 0.07394 0.07414
84140.7 1.74175 0.0776(32) 98971. 0.07394 0.07414
84149.1 1.74192 0.0763(32) 100277. 0.07395 0.07414
84157.55 1.74210 0.0740(31) 103973. 0.07395 0.07414
84166.0 1.74227 0.0715(30) 107773. 0.07395 0.07414
84174.41 1.74245 0.0666(29) 114946. 0.07395 0.07414
84182.8 1.74262 0.0670(29) 116356. 0.07396 0.07414
84191.2 1.74280 0.0735(31) 106558. 0.07396 0.07414
84199.65 1.74297 0.0785(32) 98150. 0.07396 0.07414
84208.1 1.74315 0.0719(30) 108113. 0.07396 0.07414
84216.5 1.74332 0.0711(30) 108409. 0.07397 0.07414
84224.91 1.74349 0.0724(31) 107454. 0.07397 0.07414
84233.3 1.74367 0.0715(30) 108641. 0.07397 0.07414
84241.75 1.74384 0.0702(30) 111443. 0.07397 0.07414
84250.2 1.74402 0.0753(32) 100694. 0.07398 0.07414
84258.6 1.74419 0.0746(31) 102614. 0.07398 0.07414
84267.0 1.74436 0.0709(30) 109400. 0.07398 0.07414
84275.45 1.74454 0.0732(31) 106550. 0.07398 0.07414
84283.91 1.74471 0.0742(31) 105828. 0.07399 0.07414
84292.3 1.74489 0.0768(32) 99304. 0.07399 0.07414
84300.75 1.74506 0.0713(30) 111055. 0.07399 0.07414
84309.2 1.74524 0.0730(31) 106867. 0.07400 0.07414
84317.6 1.74541 0.0770(32) 99172. 0.07400 0.07414
84326.0 1.74559 0.0701(30) 112937. 0.07400 0.07411
84334.45 1.74576 0.0717(30) 110177. 0.07400 0.07411
84342.91 1.74594 0.0706(30) 111577. 0.07401 0.07411
84351.3 1.74611 0.0692(30) 112109. 0.07401 0.07411
84359.75 1.74629 0.0695(30) 112103. 0.07401 0.07411
84368.2 1.74646 0.0727(31) 105290. 0.07401 0.07411
84376.65 1.74663 0.0703(30) 110351. 0.07402 0.07412
84385.1 1.74681 0.0711(31) 107159. 0.07402 0.07412
84393.5 1.74698 0.0715(30) 107729. 0.07402 0.07412
84401.95 1.74716 0.0764(32) 99643. 0.07402 0.07412
84410.41 1.74733 0.0713(30) 107770. 0.07403 0.07412
84418.85 1.74751 0.0696(30) 112353. 0.07403 0.07412
84427.3 1.74768 0.0750(31) 101491. 0.07403 0.07412
84435.7 1.74786 0.0709(30) 109185. 0.07403 0.07412
84444.15 1.74803 0.0750(31) 101282. 0.07404 0.07413
84452.6 1.74821 0.0757(32) 100419. 0.07404 0.07413
84461.05 1.74838 0.0693(30) 112395. 0.07404 0.07407
84469.5 1.74856 0.0682(30) 112050. 0.07404 0.07408
84477.95 1.74873 0.0713(31) 107095. 0.07405 0.07408
84486.41 1.74891 0.0751(31) 101452. 0.07405 0.07405
84494.85 1.74908 0.0758(31) 101895. 0.07405 0.07405
84503.3 1.74926 0.0758(32) 100704. 0.07405 0.07405
84511.75 1.74943 0.0736(31) 104796. 0.07406 0.07406
84520.2 1.74961 0.0723(31) 105314. 0.07406 0.07406
84528.65 1.74978 0.0667(29) 117825. 0.07406 0.07406
84537.1 1.74996 0.0745(31) 101442. 0.07406 0.07406
84545.55 1.75013 0.0746(31) 103345. 0.07407 0.07407
84554.0 1.75031 0.0724(31) 106220. 0.07407 0.07407
84562.45 1.75048 0.0742(31) 101526. 0.07407 0.07407
84570.91 1.75066 0.0712(31) 107446. 0.07407 0.07407
84579.35 1.75083 0.0761(32) 99213. 0.07408 0.07408
84587.85 1.75101 0.0728(31) 106156. 0.07408 0.07408
84596.3 1.75118 0.0697(30) 111554. 0.07408 0.07408
84604.75 1.75136 0.0703(30) 111298. 0.07409 0.07409
84613.2 1.75153 0.0739(31) 103025. 0.07409 0.07409
84621.65 1.75171 0.0728(31) 105789. 0.07409 0.07409
84630.15 1.75188 0.0728(31) 104167. 0.07409 0.07409
84638.6 1.75206 0.0693(30) 108592. 0.07410 0.07410
84647.05 1.75223 0.0688(30) 111604. 0.07410 0.07410
84655.55 1.75241 0.0711(30) 108918. 0.07410 0.07410
84664.0 1.75258 0.0717(31) 106577. 0.07410 0.07410
84672.45 1.75276 0.0716(31) 107379. 0.07411 0.07411
84680.91 1.75293 0.0776(32) 96146. 0.07411 0.07411
84689.35 1.75311 0.0746(31) 103874. 0.07411 0.07411
84697.85 1.75328 0.0794(33) 94673. 0.07411 0.07411
84706.35 1.75346 0.0754(32) 100610. 0.07412 0.07412
84714.8 1.75364 0.0726(31) 104123. 0.07412 0.07412
84723.25 1.75381 0.0747(31) 101734. 0.07412 0.07412
84731.75 1.75399 0.0786(32) 95422. 0.07412 0.07412
84740.25 1.75416 0.0771(32) 98866. 0.07413 0.07413
84748.7 1.75434 0.0749(31) 101748. 0.07413 0.07413
84757.15 1.75451 0.0739(31) 102783. 0.07413 0.07413
84765.65 1.75469 0.0763(32) 100231. 0.07413 0.07413
84774.15 1.75486 0.0703(30) 109935. 0.07414 0.07414
84782.6 1.75504 0.0686(30) 109920. 0.07414 0.07414
84791.05 1.75521 0.0682(30) 114693. 0.07414 0.07414
84799.55 1.75539 0.0722(31) 106794. 0.07414 0.07414
84808.05 1.75557 0.0702(30) 110390. 0.07415 0.07415
84816.55 1.75574 0.0717(31) 106308. 0.07415 0.07415
84825.0 1.75592 0.0732(31) 103828. 0.07415 0.07415
84833.45 1.75609 0.0782(32) 96749. 0.07415 0.07415
84841.95 1.75627 0.0765(32) 100317. 0.07416 0.07416
84850.45 1.75644 0.0755(32) 99765. 0.07416 0.07416
84858.95 1.75662 0.0697(30) 108068. 0.07416 0.07416
84867.41 1.75679 0.0714(31) 105485. 0.07416 0.07416
84875.85 1.75697 0.0781(32) 96414. 0.07417 0.07417
84884.35 1.75715 0.0772(32) 98402. 0.07417 0.07417
84892.85 1.75732 0.0735(31) 105087. 0.07417 0.07417
84901.35 1.75750 0.0738(31) 103429. 0.07417 0.07417
84909.85 1.75767 0.0741(31) 101972. 0.07418 0.07418
84918.35 1.75785 0.0690(30) 111982. 0.07418 0.07418
84926.85 1.75803 0.0758(32) 98236. 0.07418 0.07418
84935.35 1.75820 0.0729(31) 104390. 0.07418 0.07418
84943.85 1.75838 0.0757(32) 97400. 0.07419 0.07419
84952.35 1.75855 0.0770(32) 96293. 0.07419 0.07419
84960.85 1.75873 0.0754(32) 99970. 0.07419 0.07419
84969.35 1.75891 0.0742(32) 100774. 0.07419 0.07419
84977.85 1.75908 0.0758(32) 97950. 0.07420 0.07420
84986.35 1.75926 0.0734(31) 101764. 0.07420 0.07420
84994.85 1.75943 0.0721(31) 102824. 0.07420 0.07420
85003.35 1.75961 0.0718(31) 102881. 0.07420 0.07420
85011.85 1.75979 0.0672(30) 113934. 0.07421 0.07421
85020.35 1.75996 0.0777(32) 94946. 0.07421 0.07421
85028.85 1.76014 0.0771(32) 97651. 0.07421 0.07421
85037.35 1.76031 0.0781(32) 95617. 0.07421 0.07421
85045.85 1.76049 0.0779(32) 96462. 0.07422 0.07422
85054.35 1.76066 0.0773(32) 97330. 0.07422 0.07422
85062.85 1.76084 0.0722(31) 105202. 0.07422 0.07422
85071.35 1.76102 0.0739(32) 100520. 0.07422 0.07422
85079.85 1.76119 0.0689(30) 111363. 0.07423 0.07423
85088.35 1.76137 0.0743(32) 99592. 0.07423 0.07423
85096.85 1.76154 0.0700(30) 108243. 0.07423 0.07423
85105.35 1.76172 0.0736(31) 101421. 0.07423 0.07423
85113.85 1.76190 0.0755(32) 97403. 0.07424 0.07424
85122.41 1.76207 0.0707(31) 107097. 0.07424 0.07424
85130.95 1.76225 0.0727(31) 102110. 0.07424 0.07424
85139.45 1.76243 0.0771(33) 93666. 0.07424 0.07424
85147.95 1.76260 0.0712(31) 106743. 0.07425 0.07425
85156.45 1.76278 0.0717(31) 105036. 0.07425 0.07425
85164.95 1.76295 0.0747(32) 100376. 0.07425 0.07425
85173.45 1.76313 0.0792(33) 91913. 0.07425 0.07425
85182.0 1.76331 0.0748(32) 98283. 0.07426 0.07426
85190.55 1.76348 0.0745(32) 99317. 0.07426 0.07426
85199.05 1.76366 0.0703(30) 107544. 0.07426 0.07426
85207.55 1.76384 0.0737(32) 100421. 0.07426 0.07426
85216.05 1.76401 0.0765(32) 95733. 0.07427 0.07427
85224.6 1.76419 0.0753(32) 99350. 0.07427 0.07427
85233.15 1.76437 0.0749(32) 99942. 0.07427 0.07427
85241.65 1.76454 0.0736(32) 99995. 0.07427 0.07427
85250.15 1.76472 0.0687(30) 109681. 0.07428 0.07428
85258.7 1.76490 0.0748(32) 99727. 0.07428 0.07428
85267.25 1.76507 0.0757(32) 97324. 0.07428 0.07428
85275.75 1.76525 0.0730(31) 102229. 0.07428 0.07428
85284.25 1.76542 0.0723(31) 104805. 0.07429 0.07428
85292.8 1.76560 0.0735(31) 101951. 0.07429 0.07429
85301.35 1.76578 0.0742(32) 99813. 0.07429 0.07429
85309.85 1.76595 0.0729(31) 103453. 0.07429 0.07429
85318.35 1.76613 0.0710(31) 106213. 0.07429 0.07429
85326.91 1.76631 0.0716(31) 105744. 0.07430 0.07430
85335.45 1.76648 0.0733(32) 100255. 0.07430 0.07430
85344.0 1.76666 0.0728(31) 103746. 0.07430 0.07430
85352.55 1.76684 0.0729(31) 103838. 0.07430 0.07430
85361.05 1.76701 0.0728(32) 100417. 0.07431 0.07431
85369.6 1.76719 0.0707(31) 104248. 0.07431 0.07431
85378.15 1.76737 0.0701(31) 105244. 0.07431 0.07431
85386.65 1.76754 0.0711(31) 104777. 0.07431 0.07431
85395.2 1.76772 0.0745(32) 99132. 0.07432 0.07432
85403.75 1.76790 0.0721(31) 102630. 0.07432 0.07432
85412.3 1.76807 0.0695(30) 108389. 0.07432 0.07432
85420.85 1.76825 0.0683(30) 110973. 0.07432 0.07432
85429.35 1.76843 0.0713(31) 104872. 0.07433 0.07433
85437.91 1.76861 0.0716(31) 104700. 0.07433 0.07433
85446.45 1.76878 0.0691(30) 107669. 0.07433 0.07433
85455.0 1.76896 0.0692(31) 106797. 0.07433 0.07433
85463.55 1.76914 0.0742(32) 97857. 0.07434 0.07434
85472.1 1.76931 0.0786(33) 91915. 0.07434 0.07434
85480.65 1.76949 0.0724(31) 102274. 0.07434 0.07434
85489.2 1.76967 0.0694(30) 108619. 0.07434 0.07434
85497.75 1.76984 0.0785(33) 91298. 0.07435 0.07435
85506.3 1.77002 0.0766(32) 95881. 0.07435 0.07435
85514.85 1.77020 0.0767(32) 94945. 0.07435 0.07435
85523.41 1.77038 0.0748(32) 100143. 0.07435 0.07435
85531.95 1.77055 0.0746(32) 99387. 0.07436 0.07436
85540.5 1.77073 0.0730(31) 101288. 0.07436 0.07436
85549.05 1.77091 0.0726(31) 102609. 0.07436 0.07436
85557.6 1.77108 0.0760(32) 96025. 0.07436 0.07436
85566.15 1.77126 0.0712(31) 101910. 0.07437 0.07436
85574.7 1.77144 0.0724(31) 101213. 0.07437 0.07437
85583.3 1.77162 0.0786(33) 92247. 0.07437 0.07437
85591.85 1.77179 0.0791(33) 91635. 0.07437 0.07437
85600.41 1.77197 0.0748(32) 98358. 0.07437 0.07437
85608.95 1.77215 0.0759(32) 95800. 0.07438 0.07438
85617.5 1.77232 0.0765(32) 97159. 0.07438 0.07438
85626.1 1.77250 0.0780(33) 94139. 0.07438 0.07438
85634.65 1.77268 0.0781(33) 92162. 0.07438 0.07438
85643.2 1.77286 0.0724(31) 102358. 0.07439 0.07439
85651.75 1.77303 0.0730(32) 100070. 0.07439 0.07439
85660.3 1.77321 0.0677(30) 111449. 0.07439 0.07439
85668.91 1.77339 0.0713(31) 104152. 0.07439 0.07439
85677.45 1.77356 0.0708(31) 104887. 0.07440 0.07440
85686.0 1.77374 0.0699(31) 106445. 0.07440 0.07440
85694.6 1.77392 0.0774(32) 94724. 0.07440 0.07440
85703.2 1.77410 0.0766(32) 95723. 0.07440 0.07440
85711.75 1.77427 0.0740(31) 100855. 0.07441 0.07441
85720.3 1.77445 0.0763(32) 97379. 0.07441 0.07441
85728.91 1.77463 0.0766(32) 95561. 0.07441 0.07441
85737.45 1.77481 0.0749(32) 99350. 0.07441 0.07441
85746.0 1.77498 0.0722(31) 103277. 0.07442 0.07442
85754.6 1.77516 0.0769(32) 95608. 0.07442 0.07442
85763.2 1.77534 0.0754(31) 100998. 0.07442 0.07442
85771.75 1.77552 0.0772(33) 93860. 0.07442 0.07442
85780.3 1.77569 0.0749(32) 98057. 0.07442 0.07442
85788.91 1.77587 0.0746(32) 99849. 0.07443 0.07443
85797.5 1.77605 0.0780(33) 93218. 0.07443 0.07443
85806.1 1.77623 0.0777(33) 93532. 0.07443 0.07443
85814.65 1.77640 0.0723(31) 103865. 0.07443 0.07443
85823.2 1.77658 0.0736(32) 100657. 0.07444 0.07444
85831.8 1.77676 0.0746(32) 97479. 0.07444 0.07444
85840.41 1.77694 0.0768(32) 96377. 0.07444 0.07444
85849.0 1.77712 0.0779(33) 94269. 0.07444 0.07444
85857.6 1.77729 0.0755(32) 96721. 0.07445 0.07445
85866.15 1.77747 0.0761(33) 93711. 0.07445 0.07445
85874.7 1.77765 0.0776(33) 93087. 0.07445 0.07445
85883.3 1.77783 0.0726(31) 103569. 0.07445 0.07445
85891.91 1.77800 0.0716(31) 103427. 0.07446 0.07446
85900.5 1.77818 0.0788(33) 91444. 0.07446 0.07446
85909.1 1.77836 0.0755(32) 96913. 0.07446 0.07446
85917.7 1.77854 0.0746(32) 99386. 0.07446 0.07446
85926.3 1.77872 0.0834(34) 85697. 0.07446 0.07446
85934.91 1.77889 0.0766(32) 95967. 0.07447 0.07447
85943.5 1.77907 0.0777(32) 95302. 0.07447 0.07447
85952.05 1.77925 0.0791(33) 91971. 0.07447 0.07447
85960.66 1.77943 0.0778(32) 95529. 0.07447 0.07447
85969.25 1.77961 0.0803(34) 88992. 0.07448 0.07448
85977.8 1.77978 0.0721(31) 102683. 0.07448 0.07448
85986.41 1.77996 0.0713(31) 105160. 0.07448 0.07448
85995.0 1.78014 0.0772(32) 94854. 0.07448 0.07450
86003.6 1.78032 0.0734(31) 101166. 0.07449 0.07450
86012.2 1.78049 0.0747(32) 97086. 0.07449 0.07451
86020.8 1.78067 0.0777(33) 92543. 0.07449 0.07451
86029.41 1.78085 0.0752(32) 97362. 0.07449 0.07451
86038.0 1.78103 0.0767(33) 94500. 0.07449 0.07451
86046.66 1.78121 0.0699(31) 107441. 0.07450 0.07452
86055.3 1.78139 0.0728(32) 100327. 0.07450 0.07452
86063.91 1.78156 0.0728(31) 101059. 0.07450 0.07452
86072.5 1.78174 0.0726(31) 101639. 0.07450 0.07453
86081.1 1.78192 0.0717(31) 102623. 0.07451 0.07454
86089.7 1.78210 0.0676(30) 110264. 0.07451 0.07454
86098.3 1.78228 0.0716(31) 101451. 0.07451 0.07455
86106.91 1.78245 0.0699(31) 104282. 0.07451 0.07455
86115.5 1.78263 0.0709(31) 103356. 0.07452 0.07455
86124.1 1.78281 0.0740(32) 98698. 0.07452 0.07455
86132.7 1.78299 0.0740(32) 97462. 0.07452 0.07456
86141.3 1.78317 0.0649(30) 114641. 0.07452 0.07456
86149.95 1.78335 0.0690(31) 105643. 0.07452 0.07456
86158.6 1.78353 0.0690(31) 106213. 0.07453 0.07457
86167.2 1.78370 0.0680(31) 106717. 0.07453 0.07457
86175.8 1.78388 0.0694(31) 102563. 0.07453 0.07457
86184.41 1.78406 0.0738(32) 96566. 0.07453 0.07457
86193.05 1.78424 0.0770(33) 93283. 0.07454 0.07458
86201.7 1.78442 0.0804(34) 87212. 0.07454 0.07458
86210.3 1.78460 0.0746(32) 97812. 0.07454 0.07458
86218.91 1.78477 0.0805(34) 88837. 0.07454 0.07459
86227.5 1.78495 0.0796(33) 90769. 0.07455 0.07459
86236.16 1.78513 0.0754(32) 94778. 0.07455 0.07459
86244.8 1.78531 0.0716(32) 100701. 0.07455 0.07459
86253.41 1.78549 0.0782(33) 91922. 0.07455 0.07460
86262.0 1.78567 0.0799(33) 89802. 0.07455 0.07460
86270.66 1.78584 0.0769(33) 94424. 0.07456 0.07460
86279.3 1.78602 0.0778(33) 91741. 0.07456 0.07461
86287.91 1.78620 0.0714(31) 101512. 0.07456 0.07461
86296.55 1.78638 0.0678(31) 107398. 0.07456 0.07461
86305.2 1.78656 0.0722(32) 100279. 0.07457 0.07461
86313.8 1.78674 0.0794(34) 88504. 0.07457 0.07462
86322.41 1.78692 0.0765(33) 92067. 0.07457 0.07462
86331.05 1.78710 0.0787(33) 89312. 0.07457 0.07462
86339.7 1.78727 0.0780(33) 91002. 0.07458 0.07463
86348.3 1.78745 0.0803(34) 88026. 0.07458 0.07463
86356.95 1.78763 0.0715(31) 102869. 0.07458 0.07463
86365.6 1.78781 0.0710(31) 101050. 0.07458 0.07464
86374.2 1.78799 0.0741(32) 97759. 0.07458 0.07464
86382.85 1.78817 0.0759(32) 95120. 0.07459 0.07464
86391.5 1.78835 0.0702(31) 103440. 0.07459 0.07464
86400.16 1.78853 0.0733(32) 98663. 0.07459 0.07465
86408.8 1.78870 0.0736(32) 98765. 0.07459 0.07465
86417.41 1.78888 0.0769(33) 92090. 0.07460 0.07465
86426.05 1.78906 0.0719(31) 101266. 0.07460 0.07466
86434.7 1.78924 0.0722(32) 98833. 0.07460 0.07466
86443.35 1.78942 0.0783(33) 91540. 0.07460 0.07466
86452.0 1.78960 0.0782(33) 91153. 0.07460 0.07467
86460.66 1.78978 0.0697(31) 105856. 0.07461 0.07467
86469.3 1.78996 0.0740(32) 97286. 0.07461 0.07467
86477.95 1.79014 0.0762(33) 94039. 0.07461 0.07468
86486.6 1.79032 0.0742(32) 97652. 0.07461 0.07468
86495.25 1.79049 0.0779(33) 91649. 0.07462 0.07468
86503.91 1.79067 0.0732(32) 97971. 0.07462 0.07469
86512.55 1.79085 0.0744(32) 95143. 0.07462 0.07469
86521.2 1.79103 0.0751(33) 94421. 0.07462 0.07469
86529.85 1.79121 0.0735(32) 98006. 0.07462 0.07470
86538.5 1.79139 0.0771(33) 91489. 0.07463 0.07470
86547.16 1.79157 0.0771(33) 92387. 0.07463 0.07470
86555.8 1.79175 0.0826(35) 83575. 0.07463 0.07471
86564.45 1.79193 0.0721(32) 100653. 0.07463 0.07471
86573.1 1.79211 0.0701(31) 101948. 0.07464 0.07471
86581.75 1.79229 0.0733(32) 96809. 0.07464 0.07472
86590.45 1.79247 0.0736(32) 96247. 0.07464 0.07472
86599.1 1.79264 0.0715(32) 100054. 0.07464 0.07473
86607.75 1.79282 0.0729(32) 98309. 0.07464 0.07473
86616.41 1.79300 0.0732(32) 95250. 0.07465 0.07473
86625.05 1.79318 0.0718(32) 98845. 0.07465 0.07474
86633.75 1.79336 0.0720(32) 99514. 0.07465 0.07474
86642.41 1.79354 0.0751(33) 93076. 0.07465 0.07474
86651.05 1.79372 0.0743(32) 96320. 0.07466 0.07475
86659.75 1.79390 0.0734(32) 96226. 0.07466 0.07475
86668.41 1.79408 0.0699(31) 102386. 0.07466 0.07476
86677.05 1.79426 0.0748(32) 94698. 0.07466 0.07476
86685.75 1.79444 0.0691(31) 104742. 0.07466 0.07477
86694.41 1.79462 0.0680(31) 106136. 0.07467 0.07477
86703.05 1.79480 0.0731(32) 97886. 0.07467 0.07477
86711.75 1.79498 0.0732(32) 98294. 0.07467 0.07478
86720.41 1.79516 0.0798(34) 87928. 0.07467 0.07478
86729.05 1.79533 0.0754(32) 95989. 0.07468 0.07479
86737.75 1.79551 0.0750(32) 95239. 0.07468 0.07479
86746.45 1.79569 0.0767(33) 93033. 0.07468 0.07480
86755.1 1.79587 0.0713(31) 101622. 0.07468 0.07480
86763.75 1.79605 0.0733(32) 98547. 0.07468 0.07481
86772.45 1.79623 0.0720(31) 101626. 0.07469 0.07481
86781.16 1.79641 0.0718(31) 101917. 0.07469 0.07482
86789.8 1.79659 0.0742(32) 97799. 0.07469 0.07482
86798.45 1.79677 0.0727(31) 102181. 0.07469 0.07483
86807.16 1.79695 0.0733(32) 97825. 0.07470 0.07483
86815.85 1.79713 0.0681(30) 109007. 0.07470 0.07484
86824.55 1.79731 0.0745(32) 98193. 0.07470 0.07484
86833.2 1.79749 0.0728(32) 100362. 0.07470 0.07485
86841.85 1.79767 0.0727(31) 102259. 0.07470 0.07486
86850.55 1.79785 0.0775(33) 94092. 0.07471 0.07486
86859.25 1.79803 0.0760(32) 96063. 0.07471 0.07487
86867.95 1.79821 0.0778(32) 95138. 0.07471 0.07487
86876.66 1.79839 0.0816(33) 89964. 0.07471 0.07488
86885.35 1.79857 0.0807(33) 89761. 0.07471 0.07489
86894.05 1.79875 0.0738(32) 100191. 0.07472 0.07489
86902.7 1.79893 0.0786(33) 91351. 0.07472 0.07490
86911.35 1.79911 0.0751(32) 97869. 0.07472 0.07491
86920.05 1.79929 0.0718(31) 102084. 0.07472 0.07492
86928.75 1.79947 0.0773(33) 94085. 0.07473 0.07492
86937.45 1.79965 0.0792(33) 92381. 0.07473 0.07493
86946.16 1.79983 0.0784(33) 93144. 0.07473 0.07494
86954.85 1.80001 0.0778(32) 95019. 0.07473 0.07495
86963.55 1.80019 0.0797(33) 92177. 0.07473 0.07496
86972.25 1.80037 0.0797(33) 91332. 0.07474 0.07497
86980.95 1.80055 0.0789(33) 91376. 0.07474 0.07498
86989.66 1.80073 0.0753(32) 97776. 0.07474 0.07499
86998.35 1.80091 0.0752(32) 96443. 0.07474 0.07500
87007.05 1.80109 0.0688(30) 108338. 0.07474 0.07501
87015.75 1.80127 0.0749(32) 96696. 0.07475 0.07502
87024.45 1.80145 0.0754(32) 97912. 0.07475 0.07503
87033.16 1.80163 0.0819(34) 87740. 0.07475 0.07504
87041.85 1.80181 0.0797(33) 90744. 0.07475 0.07505
87050.55 1.80199 0.0769(33) 92308. 0.07476 0.07507
87059.25 1.80217 0.0725(32) 100017. 0.07476 0.07508
87067.95 1.80235 0.0733(32) 99840. 0.07476 0.07509
87076.66 1.80253 0.0732(32) 99770. 0.07476 0.07511
87085.35 1.80271 0.0730(32) 100242. 0.07476 0.07512
87094.05 1.80289 0.0786(33) 89657. 0.07477 0.07514
87102.8 1.80307 0.0735(32) 99930. 0.07477 0.07516
87111.55 1.80325 0.0724(32) 100515. 0.07477 0.07518
87120.25 1.80343 0.0725(32) 99178. 0.07477 0.07520
87128.95 1.80361 0.0788(33) 90084. 0.07477 0.07522
87137.66 1.80379 0.0749(32) 95834. 0.07478 0.07524
87146.35 1.80397 0.0699(31) 104047. 0.07478 0.07526
87155.05 1.80415 0.0763(33) 92698. 0.07478 0.07529
87163.75 1.80433 0.0758(33) 94410. 0.07478 0.07531
87172.5 1.80451 0.0748(32) 95415. 0.07479 0.07534
87181.25 1.80470 0.0746(33) 94465. 0.07479 0.07538
87189.95 1.80488 0.0771(33) 90466. 0.07479 0.07541
87198.66 1.80506 0.0765(33) 91356. 0.07479 0.07545
87207.35 1.80524 0.0786(34) 87868. 0.07479 0.07548
87216.1 1.80542 0.0791(34) 89051. 0.07480 0.07552
87224.85 1.80560 0.0803(34) 86563. 0.07480 0.07557
87233.55 1.80578 0.0808(34) 85578. 0.07480 0.07561
87242.25 1.80596 0.0767(33) 91533. 0.07480 0.07567
87251.0 1.80614 0.0792(34) 87188. 0.07480 0.07572
87259.75 1.80632 0.0771(33) 90705. 0.07481 0.07578
87268.45 1.80650 0.0793(34) 86972. 0.07481 0.07586
87277.16 1.80668 0.0822(35) 82958. 0.07481 0.07594
87285.85 1.80686 0.0803(34) 84839. 0.07481 0.07602
87294.6 1.80704 0.0805(34) 84451. 0.07481 0.07611
87303.35 1.80722 0.0805(34) 84654. 0.07482 0.07621
87312.05 1.80740 0.0823(35) 82154. 0.07482 0.07636
87320.8 1.80758 0.0771(33) 91922. 0.07482 0.07649
87329.55 1.80777 0.0819(34) 85665. 0.07482 0.07665
87338.25 1.80795 0.0823(34) 84163. 0.07482 0.07684
87347.0 1.80813 0.0810(34) 86678. 0.07483 0.07706
87355.75 1.80831 0.086(4) 79549. 0.0748 0.0773
87364.45 1.80849 0.0817(34) 84542. 0.07483 0.07766
87373.2 1.80867 0.0838(35) 82815. 0.07483 0.07808
87381.95 1.80885 0.087(4) 79903. 0.0748 0.0786
87390.7 1.80903 0.0840(35) 83577. 0.07484 0.07928
87399.45 1.80921 0.094(4) 71924. 0.0748 0.0801
87408.16 1.80939 0.094(4) 73445. 0.0748 0.0811
87416.91 1.80957 0.094(4) 74520. 0.0748 0.0824
87425.66 1.80976 0.100(4) 67494. 0.0748 0.0839
87434.41 1.80994 0.106(4) 64946. 0.0748 0.0856
87443.16 1.81012 0.109(4) 63426. 0.0748 0.0876
87451.91 1.81030 0.116(4) 58405. 0.0749 0.0898
87460.66 1.81048 0.118(4) 57284. 0.0749 0.0921
87469.41 1.81066 0.128(4) 52299. 0.0749 0.0944
87478.16 1.81084 0.127(4) 52066. 0.0749 0.0964
87486.91 1.81102 0.125(4) 53164. 0.0749 0.0982
87495.66 1.81120 0.123(4) 53493. 0.0749 0.0995
87504.35 1.81138 0.129(4) 51187. 0.0749 0.1004
87513.1 1.81157 0.132(4) 50677. 0.0749 0.1009
87521.85 1.81175 0.130(4) 50758. 0.0749 0.1012
87530.6 1.81193 0.124(4) 53812. 0.0749 0.1012
87539.41 1.81211 0.120(4) 55211. 0.0749 0.1012
87548.16 1.81229 0.113(4) 59075. 0.0749 0.1010
87556.91 1.81247 0.111(4) 61669. 0.0749 0.1006
87565.66 1.81265 0.116(4) 57755. 0.0749 0.1000
87574.41 1.81284 0.109(4) 62899. 0.0749 0.0991
87583.16 1.81302 0.098(4) 68927. 0.0749 0.0979
87591.91 1.81320 0.093(4) 73203. 0.0749 0.0965
87600.66 1.81338 0.099(4) 67067. 0.0749 0.0948
87609.41 1.81356 0.097(4) 70881. 0.0749 0.0930
87618.2 1.81374 0.096(4) 71824. 0.0749 0.0912
87626.95 1.81392 0.094(4) 73321. 0.0749 0.0894
87635.7 1.81410 0.089(4) 77989. 0.0749 0.0876
87644.5 1.81429 0.091(4) 75059. 0.0749 0.0860
87653.25 1.81447 0.088(4) 77140. 0.0749 0.0846
87662.0 1.81465 0.0848(35) 81664. 0.07490 0.08331
87670.8 1.81483 0.086(4) 79750. 0.0749 0.0822
87679.55 1.81501 0.0833(35) 82600. 0.07490 0.08120
87688.3 1.81519 0.0802(34) 87038. 0.07491 0.08036
87697.1 1.81538 0.0796(34) 88697. 0.07491 0.07965
87705.85 1.81556 0.0810(34) 85714. 0.07491 0.07905
87714.6 1.81574 0.0747(32) 96233. 0.07491 0.07854
87723.41 1.81592 0.0826(35) 83459. 0.07491 0.07812
87732.16 1.81610 0.0818(34) 85232. 0.07492 0.07776
87740.91 1.81628 0.0820(34) 84840. 0.07492 0.07746
87749.7 1.81646 0.0778(33) 89438. 0.07492 0.07720
87758.5 1.81665 0.0770(33) 91311. 0.07492 0.07698
87767.25 1.81683 0.0845(35) 82030. 0.07492 0.07680
87776.0 1.81701 0.0807(34) 88261. 0.07493 0.07664
87784.8 1.81719 0.0723(32) 98622. 0.07493 0.07650
87793.6 1.81737 0.0696(31) 102853. 0.07493 0.07638
87802.41 1.81756 0.0716(32) 99052. 0.07493 0.07628
87811.16 1.81774 0.0709(32) 100350. 0.07493 0.07619
87819.91 1.81792 0.0805(34) 85289. 0.07494 0.07611
87828.7 1.81810 0.0728(32) 98084. 0.07494 0.07603
87837.5 1.81828 0.0696(31) 103257. 0.07494 0.07597
87846.3 1.81846 0.0746(32) 95108. 0.07494 0.07592
87855.1 1.81865 0.0768(33) 91145. 0.07494 0.07587
87863.85 1.81883 0.0737(33) 93172. 0.07495 0.07582
87872.6 1.81901 0.0674(31) 107165. 0.07495 0.07578
87881.41 1.81919 0.0744(33) 92858. 0.07495 0.07575
87890.2 1.81937 0.0734(33) 93677. 0.07495 0.07571
87899.0 1.81955 0.0722(32) 96318. 0.07495 0.07568
87907.8 1.81974 0.0804(34) 84824. 0.07496 0.07566
87916.6 1.81992 0.0770(34) 88942. 0.07496 0.07563
87925.41 1.82010 0.0709(32) 99359. 0.07496 0.07561
87934.2 1.82028 0.0779(34) 87244. 0.07496 0.07559
87943.0 1.82047 0.0695(31) 102317. 0.07496 0.07557
87951.8 1.82065 0.0759(33) 89680. 0.07497 0.07556
87960.6 1.82083 0.0743(33) 91962. 0.07497 0.07554
87969.35 1.82101 0.0748(33) 90251. 0.07497 0.07553
87978.1 1.82119 0.0739(33) 94624. 0.07497 0.07552
87986.91 1.82137 0.0750(33) 94334. 0.07497 0.07551
87995.7 1.82156 0.0800(34) 86717. 0.07498 0.07550
88004.5 1.82174 0.0781(34) 88290. 0.07498 0.07549
88013.3 1.82192 0.0683(31) 103144. 0.07498 0.07548
88022.1 1.82210 0.0753(33) 91031. 0.07498 0.07547
88030.91 1.82229 0.0747(33) 92163. 0.07498 0.07547
88039.7 1.82247 0.0738(32) 94790. 0.07499 0.07546
88048.55 1.82265 0.0769(33) 92069. 0.07499 0.07546
88057.41 1.82283 0.0780(34) 88714. 0.07499 0.07545
88066.2 1.82302 0.0746(33) 93956. 0.07499 0.07545
88075.0 1.82320 0.0724(32) 97470. 0.07499 0.07545
88083.8 1.82338 0.0779(33) 89261. 0.07500 0.07544
88092.6 1.82356 0.0734(32) 99233. 0.07500 0.07544
88101.41 1.82375 0.0726(32) 97335. 0.07500 0.07544
88110.2 1.82393 0.0706(31) 100877. 0.07500 0.07544
88119.0 1.82411 0.0719(32) 98947. 0.07500 0.07544
88127.8 1.82429 0.0734(32) 94757. 0.07501 0.07544
88136.6 1.82447 0.0705(31) 101230. 0.07501 0.07544
88145.45 1.82466 0.0748(33) 92541. 0.07501 0.07545
88154.3 1.82484 0.0734(33) 94029. 0.07501 0.07545
88163.1 1.82502 0.0730(32) 95515. 0.07501 0.07545
88171.91 1.82520 0.0716(32) 97567. 0.07501 0.07546
88180.7 1.82539 0.0770(34) 87689. 0.07502 0.07546
88189.5 1.82557 0.0756(33) 90563. 0.07502 0.07546
88198.35 1.82575 0.0745(33) 91605. 0.07502 0.07547
88207.2 1.82594 0.0715(32) 94763. 0.07502 0.07548
88216.0 1.82612 0.0723(33) 93543. 0.07502 0.07548
88224.8 1.82630 0.0737(33) 93513. 0.07503 0.07549
88233.66 1.82648 0.0774(34) 87568. 0.07503 0.07550
88242.5 1.82667 0.0730(33) 92180. 0.07503 0.07550
88251.3 1.82685 0.0729(32) 95032. 0.07503 0.07551
88260.1 1.82703 0.0781(34) 88396. 0.07503 0.07552
88268.95 1.82721 0.0792(34) 86446. 0.07504 0.07553
88277.8 1.82740 0.0765(34) 87887. 0.07504 0.07555
88286.6 1.82758 0.0739(33) 91910. 0.07504 0.07556
88295.41 1.82776 0.0761(34) 88537. 0.07504 0.07557
88304.25 1.82794 0.0735(33) 92512. 0.07504 0.07558
88313.1 1.82813 0.0716(32) 95494. 0.07505 0.07560
88321.91 1.82831 0.0734(33) 94654. 0.07505 0.07561
88330.75 1.82849 0.0769(33) 90242. 0.07505 0.07563
88339.6 1.82868 0.0797(34) 85623. 0.07505 0.07565
88348.41 1.82886 0.0698(31) 102888. 0.07505 0.07567
88357.25 1.82904 0.0703(32) 100391. 0.07505 0.07569
88366.1 1.82922 0.0707(32) 97700. 0.07506 0.07571
88374.91 1.82941 0.0674(31) 104815. 0.07506 0.07574
88383.75 1.82959 0.0725(32) 98037. 0.07506 0.07576
88392.6 1.82977 0.0756(33) 91330. 0.07506 0.07579
88401.41 1.82996 0.0707(32) 98905. 0.07506 0.07582
88410.25 1.83014 0.0732(32) 97013. 0.07507 0.07585
88419.1 1.83032 0.0771(34) 88918. 0.07507 0.07589
88427.95 1.83051 0.0691(31) 101817. 0.07507 0.07593
88436.8 1.83069 0.0718(32) 97919. 0.07507 0.07597
88445.66 1.83087 0.0721(32) 97584. 0.07507 0.07601
88454.5 1.83105 0.0723(32) 95725. 0.07508 0.07606
88463.35 1.83124 0.0715(32) 100026. 0.07508 0.07611
88472.2 1.83142 0.0761(33) 90212. 0.07508 0.07617
88481.05 1.83160 0.0731(32) 96135. 0.07508 0.07624
88489.91 1.83179 0.0790(34) 84734. 0.07508 0.07631
88498.75 1.83197 0.0709(31) 100980. 0.07508 0.07639
88507.6 1.83215 0.0763(33) 90581. 0.07509 0.07647
88516.45 1.83234 0.0728(32) 94827. 0.07509 0.07657
88525.3 1.83252 0.0707(32) 98214. 0.07509 0.07669
88534.16 1.83270 0.0777(34) 86950. 0.07509 0.07682
88543.0 1.83289 0.0733(32) 95250. 0.07509 0.07698
88551.85 1.83307 0.0819(35) 83033. 0.07510 0.07716
88560.7 1.83325 0.083(4) 80905. 0.0751 0.0774
88569.55 1.83344 0.0766(34) 88578. 0.07510 0.07767
88578.41 1.83362 0.0792(35) 83970. 0.07510 0.07800
88587.25 1.83380 0.0776(33) 89285. 0.07510 0.07841
88596.1 1.83399 0.085(4) 78823. 0.0751 0.0789
88604.95 1.83417 0.088(4) 75415. 0.0751 0.0795
88613.85 1.83435 0.086(4) 80063. 0.0751 0.0802
88622.7 1.83454 0.092(4) 71217. 0.0751 0.0811
88631.55 1.83472 0.084(4) 79800. 0.0751 0.0820
88640.45 1.83490 0.087(4) 75997. 0.0751 0.0831
88649.3 1.83509 0.085(4) 78576. 0.0751 0.0842
88658.16 1.83527 0.089(4) 75817. 0.0751 0.0854
88667.05 1.83545 0.096(4) 68736. 0.0751 0.0866
88675.91 1.83564 0.093(4) 70606. 0.0751 0.0878
88684.75 1.83582 0.089(4) 75246. 0.0751 0.0888
88693.66 1.83601 0.095(4) 70217. 0.0751 0.0899
88702.5 1.83619 0.102(4) 63827. 0.0751 0.0910
88711.35 1.83637 0.100(4) 66140. 0.0751 0.0922
88720.25 1.83656 0.106(4) 60698. 0.0751 0.0935
88729.1 1.83674 0.104(4) 61728. 0.0751 0.0951
88737.95 1.83692 0.106(4) 61414. 0.0751 0.0970
88746.85 1.83711 0.112(4) 57031. 0.0751 0.0991
88755.75 1.83729 0.099(4) 66215. 0.0751 0.1014
88764.6 1.83747 0.098(4) 67144. 0.0751 0.1038
88773.45 1.83766 0.105(4) 62379. 0.0751 0.1062
88782.35 1.83784 0.108(4) 60494. 0.0751 0.1083
88791.25 1.83803 0.115(4) 55525. 0.0751 0.1100
88800.16 1.83821 0.112(4) 56649. 0.0751 0.1111
88809.0 1.83839 0.119(4) 52733. 0.0751 0.1115
88817.85 1.83858 0.112(4) 58125. 0.0752 0.1110
88826.75 1.83876 0.107(4) 59672. 0.0752 0.1097
88835.66 1.83895 0.109(4) 59064. 0.0752 0.1077
88844.55 1.83913 0.107(4) 60658. 0.0752 0.1053
88853.41 1.83931 0.105(4) 59906. 0.0752 0.1025
88862.25 1.83950 0.100(4) 64509. 0.0752 0.0997
88871.16 1.83968 0.099(4) 66276. 0.0752 0.0969
88880.05 1.83986 0.098(4) 66746. 0.0752 0.0942
88888.95 1.84005 0.091(4) 71426. 0.0752 0.0917
88897.85 1.84023 0.089(4) 74620. 0.0752 0.0894
88906.75 1.84042 0.090(4) 73343. 0.0752 0.0874
88915.66 1.84060 0.083(4) 79872. 0.0752 0.0857
88924.55 1.84079 0.0819(35) 82160. 0.07517 0.08421
88933.45 1.84097 0.084(4) 80125. 0.0752 0.0829
88942.35 1.84115 0.0824(34) 84494. 0.07518 0.08188
88951.2 1.84134 0.089(4) 74296. 0.0752 0.0810
88960.05 1.84152 0.0795(34) 86550. 0.07518 0.08024
88968.95 1.84170 0.0794(34) 84843. 0.07518 0.07962
88977.85 1.84189 0.085(4) 76066. 0.0752 0.0791
88986.75 1.84207 0.0812(35) 82693. 0.07518 0.07863
88995.66 1.84226 0.0782(34) 87753. 0.07519 0.07825
89004.55 1.84244 0.0817(35) 81451. 0.07519 0.07794
89013.45 1.84263 0.0766(34) 87091. 0.07519 0.07767
89022.35 1.84281 0.0777(34) 86073. 0.07519 0.07744
89031.25 1.84299 0.0730(33) 93503. 0.07519 0.07724
89040.16 1.84318 0.0752(33) 89660. 0.07519 0.07706
89049.05 1.84336 0.082(4) 79287. 0.0752 0.0769
89057.95 1.84355 0.0752(34) 88763. 0.07520 0.07677
89066.9 1.84373 0.0785(34) 84583. 0.07520 0.07665
89075.85 1.84392 0.082(4) 78616. 0.0752 0.0765
89084.75 1.84410 0.0788(35) 83175. 0.07520 0.07646
89093.66 1.84429 0.084(4) 75703. 0.0752 0.0764
89102.55 1.84447 0.083(4) 77404. 0.0752 0.0763
89111.45 1.84466 0.084(4) 76410. 0.0752 0.0762
89120.35 1.84484 0.0790(35) 81456. 0.07521 0.07618
89129.25 1.84502 0.080(4) 77925. 0.0752 0.0761
89138.16 1.84521 0.083(4) 75420. 0.0752 0.0761
89147.1 1.84539 0.086(4) 74644. 0.0752 0.0760
89156.05 1.84558 0.085(4) 73627. 0.0752 0.0760
89164.95 1.84576 0.0796(35) 81478. 0.07522 0.07595
89173.85 1.84595 0.083(4) 77425. 0.0752 0.0759
89182.75 1.84613 0.086(4) 72052. 0.0752 0.0759
89191.66 1.84632 0.084(4) 75389. 0.0752 0.0759
89200.6 1.84650 0.084(4) 75983. 0.0752 0.0758
89209.55 1.84669 0.085(4) 74801. 0.0752 0.0758
89218.45 1.84687 0.081(4) 78360. 0.0752 0.0758
89227.35 1.84705 0.078(4) 81200. 0.0752 0.0758
89236.25 1.84724 0.0751(34) 85339. 0.07523 0.07574
89245.2 1.84742 0.0772(35) 83479. 0.07524 0.07572
89254.16 1.84761 0.0789(35) 82883. 0.07524 0.07570
89263.05 1.84779 0.079(4) 79778. 0.0752 0.0757
89272.0 1.84798 0.0690(32) 96837. 0.07524 0.07567
89280.95 1.84816 0.0786(35) 81289. 0.07524 0.07566
89289.85 1.84835 0.082(4) 78912. 0.0752 0.0756
89298.75 1.84853 0.081(4) 78955. 0.0752 0.0756
89307.7 1.84872 0.0693(32) 96376. 0.07525 0.07562
89316.66 1.84890 0.0752(34) 84830. 0.07525 0.07561
89325.55 1.84909 0.0770(35) 82936. 0.07525 0.07560
89334.5 1.84927 0.0755(34) 86047. 0.07525 0.07559
89343.45 1.84946 0.0726(34) 88201. 0.07525 0.07558
89352.35 1.84964 0.0747(34) 85870. 0.07526 0.07557
89361.3 1.84983 0.081(4) 80196. 0.0753 0.0756
89370.25 1.85001 0.0752(34) 86873. 0.07526 0.07555
89379.16 1.85020 0.0685(32) 98133. 0.07526 0.07555
89388.1 1.85038 0.0779(35) 83023. 0.07526 0.07554
89397.05 1.85057 0.0757(34) 86320. 0.07526 0.07553
89406.0 1.85075 0.0736(33) 89279. 0.07527 0.07553
89414.95 1.85094 0.0745(34) 89067. 0.07527 0.07552
89423.85 1.85112 0.0792(35) 83282. 0.07527 0.07551
89432.8 1.85131 0.0732(33) 92664. 0.07527 0.07551
89441.75 1.85149 0.0764(34) 86048. 0.07527 0.07550
89450.7 1.85168 0.0666(31) 102928. 0.07527 0.07550
89459.66 1.85186 0.0662(31) 102025. 0.07528 0.07550
89468.6 1.85205 0.0750(34) 87972. 0.07528 0.07549
89477.55 1.85223 0.0782(34) 84164. 0.07528 0.07549
89486.5 1.85242 0.0783(34) 84194. 0.07528 0.07548
89495.45 1.85260 0.0757(34) 86363. 0.07528 0.07548
89504.4 1.85279 0.0749(34) 88445. 0.07528 0.07548
89513.35 1.85298 0.0792(35) 82828. 0.07529 0.07547
89522.3 1.85316 0.0758(34) 87911. 0.07529 0.07547
89531.25 1.85335 0.0738(33) 89987. 0.07529 0.07547
89540.2 1.85353 0.0782(34) 85400. 0.07529 0.07547
89549.16 1.85372 0.0750(34) 88390. 0.07529 0.07546
89558.1 1.85390 0.0702(32) 95277. 0.07529 0.07546
89567.05 1.85409 0.0694(32) 97916. 0.07530 0.07546
89576.0 1.85427 0.0738(33) 91990. 0.07530 0.07546
89584.95 1.85446 0.0689(32) 97662. 0.07530 0.07545
89593.9 1.85464 0.0668(32) 100778. 0.07530 0.07545
89602.9 1.85483 0.0715(33) 92640. 0.07530 0.07545
89611.85 1.85501 0.0698(32) 95615. 0.07530 0.07545
89620.8 1.85520 0.0698(32) 95497. 0.07531 0.07545
89629.8 1.85539 0.0721(33) 91868. 0.07531 0.07545
89638.75 1.85557 0.0732(34) 88183. 0.07531 0.07545
89647.7 1.85576 0.0708(33) 92458. 0.07531 0.07544
89656.66 1.85594 0.0715(33) 93164. 0.07531 0.07544
89665.6 1.85613 0.0730(33) 90741. 0.07531 0.07544
89674.6 1.85631 0.0741(33) 89359. 0.07532 0.07544
89683.55 1.85650 0.0780(35) 83978. 0.07532 0.07544
89692.5 1.85668 0.0791(35) 82231. 0.07532 0.07544
89701.5 1.85687 0.0765(34) 85192. 0.07532 0.07544
89710.45 1.85706 0.0777(35) 83385. 0.07532 0.07544
89719.4 1.85724 0.0770(34) 85325. 0.07532 0.07544
89728.4 1.85743 0.0734(33) 89957. 0.07533 0.07544
89737.4 1.85761 0.0709(33) 94034. 0.07533 0.07544
89746.35 1.85780 0.082(4) 76247. 0.0753 0.0754
89755.3 1.85798 0.0788(35) 81433. 0.07533 0.07544
89764.3 1.85817 0.0725(33) 90410. 0.07533 0.07544
89773.3 1.85836 0.0774(35) 83771. 0.07533 0.07543
89782.3 1.85854 0.080(4) 80244. 0.0753 0.0754
89791.25 1.85873 0.0775(35) 83487. 0.07534 0.07543
89800.2 1.85891 0.0774(34) 84552. 0.07534 0.07543
89809.2 1.85910 0.078(4) 80772. 0.0753 0.0754
89818.2 1.85929 0.0761(34) 85379. 0.07534 0.07543
89827.2 1.85947 0.085(4) 74247. 0.0753 0.0754
89836.16 1.85966 0.081(4) 80180. 0.0753 0.0754
89845.1 1.85984 0.0710(33) 94344. 0.07535 0.07543
89854.1 1.86003 0.0705(33) 93774. 0.07535 0.07543
89863.1 1.86022 0.0777(35) 81864. 0.07535 0.07543
89872.1 1.86040 0.0754(34) 86223. 0.07535 0.07544
89881.1 1.86059 0.0758(34) 86301. 0.07535 0.07544
89890.1 1.86077 0.0698(33) 94373. 0.07536 0.07544
89899.05 1.86096 0.0726(34) 88817. 0.07536 0.07544
89908.0 1.86115 0.0691(32) 96371. 0.07536 0.07544
89917.0 1.86133 0.0750(34) 87158. 0.07536 0.07544
89926.0 1.86152 0.0743(33) 90175. 0.07536 0.07544
89935.0 1.86170 0.0721(33) 92489. 0.07536 0.07544
89944.0 1.86189 0.0714(33) 94541. 0.07537 0.07544
89953.0 1.86208 0.0753(34) 88007. 0.07537 0.07544
89962.0 1.86226 0.0794(35) 82517. 0.07537 0.07544
89971.0 1.86245 0.0726(33) 92018. 0.07537 0.07544
89980.0 1.86264 0.0731(33) 90644. 0.07537 0.07544
89989.0 1.86282 0.0733(33) 90368. 0.07537 0.07544
89998.0 1.86301 0.0690(32) 98500. 0.07537 0.07544
90007.0 1.86319 0.0724(33) 92698. 0.07538 0.07544
90016.0 1.86338 0.0708(33) 94363. 0.07538 0.07544
90025.0 1.86357 0.0716(33) 93544. 0.07538 0.07544
90034.0 1.86375 0.0721(32) 95935. 0.07538 0.07544
90043.0 1.86394 0.0758(33) 90279. 0.07538 0.07544
90052.0 1.86413 0.0708(32) 96444. 0.07538 0.07545
90061.0 1.86431 0.0757(34) 88089. 0.07539 0.07545
90070.0 1.86450 0.0782(34) 84018. 0.07539 0.07545
90079.0 1.86469 0.0734(33) 90930. 0.07539 0.07545
90088.0 1.86487 0.0790(35) 83453. 0.07539 0.07545
90097.0 1.86506 0.0730(33) 92531. 0.07539 0.07545
90106.05 1.86525 0.0716(32) 94782. 0.07539 0.07545
90115.1 1.86543 0.0762(34) 86635. 0.07540 0.07545
90124.1 1.86562 0.0701(32) 98742. 0.07540 0.07545
90133.1 1.86581 0.0764(34) 87073. 0.07540 0.07545
90142.1 1.86599 0.0745(33) 89499. 0.07540 0.07545
90151.1 1.86618 0.0744(33) 89896. 0.07540 0.07545
90160.1 1.86636 0.0739(34) 88983. 0.07540 0.07545
90169.1 1.86655 0.0742(34) 86596. 0.07540 0.07545
90178.16 1.86674 0.0689(32) 97186. 0.07541 0.07545
90187.2 1.86693 0.0712(33) 93846. 0.07541 0.07545
90196.2 1.86711 0.0761(34) 84468. 0.07541 0.07545
90205.2 1.86730 0.0710(33) 91813. 0.07541 0.07545
90214.2 1.86748 0.0712(33) 91560. 0.07541 0.07545
90223.25 1.86767 0.0743(34) 87642. 0.07541 0.07545
90232.3 1.86786 0.080(4) 79580. 0.0754 0.0755
90241.3 1.86805 0.0772(34) 84250. 0.07542 0.07546
90250.3 1.86823 0.081(4) 78732. 0.0754 0.0754
90259.35 1.86842 0.0792(35) 82113. 0.07542 0.07545
90268.4 1.86861 0.0756(34) 85757. 0.07542 0.07545
90277.4 1.86879 0.0693(33) 92678. 0.07542 0.07545
90286.4 1.86898 0.0709(34) 88382. 0.07543 0.07545
90295.45 1.86917 0.0728(34) 88850. 0.07543 0.07543
90304.5 1.86935 0.079(4) 79802. 0.0754 0.0754
90313.5 1.86954 0.0774(35) 82825. 0.07543 0.07543
90322.55 1.86973 0.082(4) 76520. 0.0754 0.0754
90331.6 1.86991 0.0772(35) 83912. 0.07543 0.07543
90340.6 1.87010 0.0725(34) 88968. 0.07543 0.07543
90349.66 1.87029 0.0675(32) 96815. 0.07544 0.07544
90358.7 1.87048 0.0724(34) 88327. 0.07544 0.07544
90367.7 1.87066 0.0761(34) 84145. 0.07544 0.07544
90376.75 1.87085 0.0742(34) 87708. 0.07544 0.07544
90385.8 1.87104 0.0761(35) 83394. 0.07544 0.07544
90394.8 1.87122 0.079(4) 80921. 0.0754 0.0754
90403.85 1.87141 0.0771(35) 83766. 0.07545 0.07545
90412.9 1.87160 0.079(4) 78855. 0.0754 0.0754
90421.95 1.87179 0.0740(34) 86271. 0.07545 0.07545
90431.0 1.87197 0.0688(33) 92748. 0.07545 0.07545
90440.05 1.87216 0.0703(33) 91696. 0.07545 0.07545
90449.1 1.87235 0.079(4) 78570. 0.0755 0.0755
90458.1 1.87253 0.0771(35) 81334. 0.07545 0.07545
90467.16 1.87272 0.0744(34) 85604. 0.07546 0.07546
90476.2 1.87291 0.079(4) 78130. 0.0755 0.0755
90485.25 1.87310 0.080(4) 78833. 0.0755 0.0755
90494.3 1.87328 0.080(4) 79001. 0.0755 0.0755
90503.35 1.87347 0.0756(34) 85176. 0.07546 0.07546
90512.4 1.87366 0.0760(34) 85785. 0.07546 0.07546
90521.45 1.87384 0.0771(35) 82965. 0.07547 0.07547
90530.5 1.87403 0.0742(34) 85684. 0.07547 0.07547
90539.55 1.87422 0.0751(34) 84621. 0.07547 0.07547
90548.6 1.87441 0.0756(35) 83018. 0.07547 0.07547
90557.66 1.87459 0.0758(35) 83007. 0.07547 0.07547
90566.75 1.87478 0.079(4) 79275. 0.0755 0.0755
90575.8 1.87497 0.079(4) 80216. 0.0755 0.0755
90584.85 1.87516 0.0747(34) 86232. 0.07548 0.07548
90593.9 1.87534 0.077(4) 80279. 0.0755 0.0755
90602.95 1.87553 0.0747(34) 84986. 0.07548 0.07548
90612.0 1.87572 0.0768(35) 83304. 0.07548 0.07548
90621.05 1.87591 0.0737(34) 86222. 0.07548 0.07548
90630.16 1.87610 0.0698(33) 90467. 0.07548 0.07548
90639.2 1.87628 0.0733(34) 85355. 0.07549 0.07549
90648.25 1.87647 0.0772(35) 83337. 0.07549 0.07549
90657.35 1.87666 0.083(4) 75793. 0.0755 0.0755
90666.4 1.87685 0.0760(35) 83348. 0.07549 0.07549
90675.45 1.87703 0.0721(33) 91469. 0.07549 0.07549
90684.55 1.87722 0.0775(35) 82536. 0.07549 0.07549
90693.6 1.87741 0.0763(35) 83604. 0.07549 0.07549
90702.66 1.87760 0.0731(34) 88956. 0.07550 0.07550
90711.75 1.87778 0.0716(33) 90642. 0.07550 0.07550
90720.85 1.87797 0.0721(33) 89903. 0.07550 0.07550
90729.9 1.87816 0.0735(34) 87660. 0.07550 0.07550
90738.95 1.87835 0.0720(33) 89963. 0.07550 0.07550
90748.05 1.87854 0.0687(33) 94398. 0.07550 0.07550
90757.1 1.87872 0.0763(35) 83932. 0.07550 0.07550
90766.16 1.87891 0.083(4) 76730. 0.0755 0.0755
90775.25 1.87910 0.0792(35) 81913. 0.07551 0.07551
90784.35 1.87929 0.0744(34) 88237. 0.07551 0.07551
90793.45 1.87948 0.0740(34) 86558. 0.07551 0.07551
90802.5 1.87966 0.0756(35) 83553. 0.07551 0.07551
90811.55 1.87985 0.0651(31) 104121. 0.07551 0.07551
90820.66 1.88004 0.0723(34) 87816. 0.07552 0.07552
90829.75 1.88023 0.0773(35) 82039. 0.07552 0.07552
90838.85 1.88042 0.082(4) 77038. 0.0755 0.0755
90847.95 1.88060 0.0784(35) 81373. 0.07552 0.07552
90857.0 1.88079 0.0772(35) 82528. 0.07552 0.07552
90866.05 1.88098 0.0753(34) 85189. 0.07552 0.07552
90875.16 1.88117 0.080(4) 78250. 0.0755 0.0755
90884.25 1.88136 0.0729(33) 89794. 0.07553 0.07553
90893.35 1.88154 0.0733(34) 87474. 0.07553 0.07553
90902.45 1.88173 0.0761(35) 81767. 0.07553 0.07553
90911.55 1.88192 0.0757(35) 83112. 0.07553 0.07553
90920.66 1.88211 0.078(4) 81193. 0.0755 0.0755
90929.75 1.88230 0.082(4) 75292. 0.0755 0.0755
90938.8 1.88248 0.0752(35) 81492. 0.07553 0.07553
90947.85 1.88267 0.0745(35) 83182. 0.07554 0.07554
90956.95 1.88286 0.0738(34) 85995. 0.07554 0.07554
90966.05 1.88305 0.077(4) 80694. 0.0755 0.0755
90975.16 1.88324 0.078(4) 79930. 0.0755 0.0755
90984.25 1.88343 0.0741(34) 85608. 0.07554 0.07554
90993.35 1.88361 0.079(4) 77240. 0.0755 0.0755
91002.45 1.88380 0.077(4) 78712. 0.0755 0.0755
91011.55 1.88399 0.0707(34) 88813. 0.07555 0.07555
91020.66 1.88418 0.0744(35) 82148. 0.07555 0.07555
91029.75 1.88437 0.0744(35) 82983. 0.07555 0.07555
91038.85 1.88456 0.081(4) 74314. 0.0756 0.0756
91047.95 1.88474 0.081(4) 76605. 0.0756 0.0756
91057.05 1.88493 0.0776(35) 82136. 0.07555 0.07555
91066.2 1.88512 0.079(4) 80192. 0.0756 0.0756
91075.35 1.88531 0.078(4) 79576. 0.0756 0.0756
91084.45 1.88550 0.079(4) 79833. 0.0756 0.0756
91093.55 1.88569 0.085(4) 72744. 0.0756 0.0756
91102.66 1.88588 0.077(4) 78697. 0.0756 0.0756
91111.75 1.88607 0.0754(35) 82109. 0.07556 0.07556
91120.85 1.88625 0.078(4) 79761. 0.0756 0.0756
91129.95 1.88644 0.0740(34) 84487. 0.07557 0.07557
91139.05 1.88663 0.078(4) 78431. 0.0756 0.0756
91148.2 1.88682 0.0752(35) 82618. 0.07557 0.07557
91157.35 1.88701 0.075(4) 80230. 0.0756 0.0756
91166.45 1.88720 0.0720(34) 87102. 0.07557 0.07557
91175.55 1.88739 0.080(4) 77703. 0.0756 0.0756
91184.66 1.88757 0.079(4) 80722. 0.0756 0.0756
91193.75 1.88776 0.081(4) 76761. 0.0756 0.0756
91202.91 1.88795 0.0755(35) 83435. 0.07558 0.07640
91212.05 1.88814 0.081(4) 73932. 0.0756 0.0764
91221.16 1.88833 0.0747(34) 84097. 0.07558 0.07643
91230.25 1.88852 0.081(4) 77712. 0.0756 0.0764
91239.35 1.88871 0.082(4) 76628. 0.0756 0.0764
91248.5 1.88890 0.080(4) 77224. 0.0756 0.0765
91257.66 1.88909 0.077(4) 78892. 0.0756 0.0765
91266.75 1.88927 0.0715(34) 87581. 0.07559 0.07649
91275.85 1.88946 0.0727(34) 85986. 0.07559 0.07650
91285.0 1.88965 0.0716(34) 87967. 0.07559 0.07651
91294.16 1.88984 0.0745(35) 81887. 0.07559 0.07652
91303.25 1.89003 0.0745(35) 83868. 0.07559 0.07693
91312.41 1.89022 0.080(4) 78018. 0.0756 0.0769
91321.55 1.89041 0.079(4) 77487. 0.0756 0.0770
91330.66 1.89060 0.0715(34) 87105. 0.07560 0.07698
91339.8 1.89079 0.0719(34) 86303. 0.07560 0.07700
91348.95 1.89098 0.0754(35) 82018. 0.07560 0.07702
91358.05 1.89116 0.077(4) 81202. 0.0756 0.0770
91367.2 1.89135 0.082(4) 74757. 0.0756 0.0771
91376.35 1.89154 0.082(4) 75009. 0.0756 0.0771
91385.45 1.89173 0.081(4) 76206. 0.0756 0.0771
91394.6 1.89192 0.0728(34) 86998. 0.07561 0.07712
91403.75 1.89211 0.0733(34) 84624. 0.07561 0.07714
91412.91 1.89230 0.077(4) 80948. 0.0756 0.0772
91422.05 1.89249 0.080(4) 78045. 0.0756 0.0772
91431.16 1.89268 0.080(4) 77730. 0.0756 0.0772
91440.3 1.89287 0.080(4) 78456. 0.0756 0.0772
91449.45 1.89306 0.085(4) 71678. 0.0756 0.0773
91458.6 1.89325 0.080(4) 78071. 0.0756 0.0773
91467.75 1.89344 0.079(4) 77503. 0.0756 0.0773
91476.91 1.89362 0.0732(34) 84934. 0.07562 0.07732
91486.05 1.89381 0.0701(33) 90874. 0.07562 0.07735
91495.2 1.89400 0.0741(34) 84839. 0.07562 0.07737
91504.35 1.89419 0.0753(35) 81735. 0.07562 0.07740
91513.5 1.89438 0.0715(34) 87494. 0.07563 0.07743
91522.66 1.89457 0.0745(35) 82517. 0.07563 0.07745
91531.8 1.89476 0.078(4) 78044. 0.0756 0.0775
91540.95 1.89495 0.0752(35) 81503. 0.07563 0.07751
91550.1 1.89514 0.078(4) 79230. 0.0756 0.0775
91559.25 1.89533 0.079(4) 76455. 0.0756 0.0776
91568.41 1.89552 0.077(4) 77612. 0.0756 0.0776
91577.55 1.89571 0.078(4) 76465. 0.0756 0.0776
91586.7 1.89590 0.079(4) 76519. 0.0756 0.0777
91595.91 1.89609 0.083(4) 72923. 0.0756 0.0777
91605.05 1.89628 0.079(4) 77469. 0.0756 0.0777
91614.2 1.89647 0.079(4) 78141. 0.0756 0.0778
91623.41 1.89666 0.086(4) 70637. 0.0756 0.0778
91632.55 1.89685 0.080(4) 77139. 0.0756 0.0778
91641.7 1.89704 0.0716(33) 89199. 0.07564 0.07785
91650.85 1.89723 0.077(4) 79755. 0.0756 0.0779
91660.0 1.89742 0.0766(35) 81944. 0.07565 0.07793
91669.2 1.89761 0.078(4) 79452. 0.0756 0.0780
91678.35 1.89780 0.083(4) 72787. 0.0757 0.0780
91687.5 1.89798 0.079(4) 78626. 0.0757 0.0780
91696.7 1.89818 0.0752(35) 83404. 0.07565 0.07808
91705.85 1.89836 0.0761(35) 81455. 0.07565 0.07812
91715.0 1.89855 0.078(4) 77247. 0.0757 0.0782
91724.2 1.89874 0.076(4) 80579. 0.0757 0.0782
91733.41 1.89893 0.081(4) 75527. 0.0757 0.0783
91742.55 1.89912 0.079(4) 79510. 0.0757 0.0783
91751.7 1.89931 0.083(4) 73761. 0.0757 0.0783
91760.91 1.89950 0.0761(35) 83530. 0.07566 0.07839
91770.1 1.89969 0.077(4) 81161. 0.0757 0.0784
91779.3 1.89988 0.0736(34) 86032. 0.07567 0.07849
91788.45 1.90007 0.077(4) 80173. 0.0757 0.0785
91797.6 1.90026 0.0733(34) 85494. 0.07567 0.07860
91806.8 1.90045 0.0736(34) 84027. 0.07567 0.07865
91816.0 1.90064 0.083(4) 72798. 0.0757 0.0787
91825.2 1.90084 0.082(4) 73783. 0.0757 0.0788
91834.35 1.90102 0.075(4) 81281. 0.0757 0.0788
91843.5 1.90121 0.080(4) 76060. 0.0757 0.0789
91852.7 1.90140 0.083(4) 73723. 0.0757 0.0789
91861.91 1.90159 0.088(4) 67391. 0.0757 0.0790
91871.1 1.90179 0.085(4) 70510. 0.0757 0.0791
91880.3 1.90198 0.079(4) 77853. 0.0757 0.0791
91889.45 1.90217 0.081(4) 74701. 0.0757 0.0792
91898.6 1.90235 0.084(4) 71656. 0.0757 0.0793
91907.8 1.90254 0.082(4) 74161. 0.0757 0.0794
91917.0 1.90274 0.083(4) 72578. 0.0757 0.0794
91926.2 1.90293 0.081(4) 75127. 0.0757 0.0795
91935.41 1.90312 0.085(4) 72120. 0.0757 0.0796
91944.6 1.90331 0.084(4) 72655. 0.0757 0.0797
91953.8 1.90350 0.083(4) 73261. 0.0757 0.0798
91963.0 1.90369 0.085(4) 70835. 0.0757 0.0798
91972.2 1.90388 0.082(4) 73468. 0.0757 0.0799
91981.41 1.90407 0.077(4) 77531. 0.0757 0.0800
91990.6 1.90426 0.0746(35) 81920. 0.07570 0.08013
91999.8 1.90445 0.081(4) 73777. 0.0757 0.0802
92009.0 1.90464 0.082(4) 74411. 0.0757 0.0803
92018.2 1.90483 0.086(4) 70913. 0.0757 0.0804
92027.41 1.90502 0.086(4) 69825. 0.0757 0.0806
92036.6 1.90521 0.078(4) 79511. 0.0757 0.0807
92045.8 1.90540 0.076(4) 80666. 0.0757 0.0808
92055.0 1.90559 0.0714(33) 89114. 0.07571 0.08091
92064.2 1.90578 0.078(4) 77906. 0.0757 0.0810
92073.41 1.90597 0.0751(35) 83473. 0.07571 0.08117
92082.6 1.90616 0.0749(35) 83056. 0.07571 0.08131
92091.8 1.90635 0.079(4) 77114. 0.0757 0.0814
92101.0 1.90654 0.081(4) 75565. 0.0757 0.0816
92110.2 1.90674 0.080(4) 77368. 0.0757 0.0817
92119.45 1.90693 0.083(4) 74156. 0.0757 0.0819
92128.7 1.90712 0.081(4) 76429. 0.0757 0.0821
92137.91 1.90731 0.084(4) 73265. 0.0757 0.0822
92147.1 1.90750 0.086(4) 71027. 0.0757 0.0824
92156.3 1.90769 0.089(4) 67925. 0.0757 0.0826
92165.5 1.90788 0.083(4) 73760. 0.0757 0.0828
92174.7 1.90807 0.083(4) 71943. 0.0757 0.0830
92183.95 1.90826 0.080(4) 78148. 0.0757 0.0832
92193.2 1.90845 0.086(4) 69107. 0.0757 0.0834
92202.41 1.90864 0.085(4) 70720. 0.0757 0.0837
92211.6 1.90883 0.087(4) 69415. 0.0757 0.0839
92220.8 1.90902 0.084(4) 71933. 0.0757 0.0842
92230.05 1.90922 0.083(4) 72064. 0.0757 0.0844
92239.3 1.90941 0.084(4) 70241. 0.0757 0.0847
92248.5 1.90960 0.084(4) 70345. 0.0757 0.0850
92257.7 1.90979 0.086(4) 69163. 0.0757 0.0853
92266.95 1.90998 0.093(4) 62582. 0.0757 0.0856
92276.2 1.91017 0.092(4) 64761. 0.0757 0.0860
92285.41 1.91036 0.097(4) 60432. 0.0757 0.0863
92294.6 1.91055 0.093(4) 63495. 0.0757 0.0867
92303.85 1.91074 0.090(4) 65114. 0.0757 0.0871
92313.1 1.91094 0.081(4) 73649. 0.0757 0.0875
92322.3 1.91113 0.086(4) 67828. 0.0757 0.0879
92331.55 1.91132 0.092(4) 64694. 0.0757 0.0884
92340.8 1.91151 0.093(4) 63840. 0.0757 0.0889
92350.0 1.91170 0.094(4) 62252. 0.0757 0.0894
92359.25 1.91189 0.087(4) 70235. 0.0758 0.0899
92368.5 1.91208 0.090(4) 65228. 0.0758 0.0905
92377.75 1.91227 0.087(4) 68693. 0.0758 0.0911
92387.0 1.91247 0.089(4) 67402. 0.0758 0.0918
92396.2 1.91266 0.094(4) 62969. 0.0758 0.0925
92405.45 1.91285 0.095(4) 63022. 0.0758 0.0933
92414.7 1.91304 0.098(4) 60011. 0.0758 0.0941
92423.95 1.91323 0.095(4) 63402. 0.0758 0.0949
92433.2 1.91342 0.094(4) 63223. 0.0758 0.0958
92442.41 1.91361 0.098(4) 60618. 0.0758 0.0968
92451.66 1.91380 0.101(4) 59388. 0.0758 0.0979
92460.91 1.91400 0.102(4) 57948. 0.0758 0.0990
92470.16 1.91419 0.097(4) 61330. 0.0758 0.1002
92479.41 1.91438 0.099(4) 59159. 0.0758 0.1016
92488.66 1.91457 0.100(4) 59783. 0.0758 0.1030
92497.91 1.91476 0.105(4) 56293. 0.0758 0.1046
92507.16 1.91495 0.108(4) 54355. 0.0758 0.1063
92516.41 1.91514 0.104(4) 56244. 0.0758 0.1082
92525.66 1.91534 0.111(4) 52920. 0.0758 0.1102
92534.91 1.91553 0.111(4) 53627. 0.0758 0.1125
92544.16 1.91572 0.116(4) 50442. 0.0758 0.1150
92553.41 1.91591 0.117(4) 49644. 0.0758 0.1177
92562.66 1.91610 0.123(5) 46511. 0.0758 0.1208
92571.91 1.91629 0.119(5) 48234. 0.0758 0.1242
92581.16 1.91648 0.125(5) 46357. 0.0758 0.1280
92590.45 1.91668 0.132(5) 42973. 0.0758 0.1323
92599.7 1.91687 0.138(5) 40673. 0.0758 0.1373
92608.95 1.91706 0.148(5) 37940. 0.0758 0.1430
92618.2 1.91725 0.162(5) 33632. 0.0758 0.1497
92627.45 1.91744 0.161(5) 34831. 0.0758 0.1578
92636.75 1.91764 0.176(6) 31141. 0.0758 0.1676
92646.0 1.91783 0.190(6) 28435. 0.0758 0.1797
92655.25 1.91802 0.204(6) 26377. 0.0758 0.1949
92664.55 1.91821 0.229(7) 22916. 0.0758 0.2142
92673.8 1.91840 0.251(7) 20468. 0.0758 0.2385
92683.05 1.91859 0.270(7) 19008. 0.0758 0.2693
92692.35 1.91879 0.310(8) 15937. 0.0758 0.3080
92701.6 1.91898 0.363(9) 13142. 0.0758 0.3555
92710.85 1.91917 0.429(10) 10703. 0.0758 0.4130
92720.16 1.91936 0.480(10) 9256. 0.0758 0.4817
92729.45 1.91955 0.556(11) 7567. 0.0758 0.5609
92738.7 1.91975 0.641(13) 6195. 0.0758 0.6490
92747.95 1.91994 0.751(14) 4980. 0.0758 0.7434
92757.25 1.92013 0.817(15) 4424. 0.0758 0.8395
92766.55 1.92032 0.892(16) 3894. 0.0758 0.9298
92775.8 1.92051 0.987(17) 3337. 0.0758 1.0060
92785.05 1.92071 1.036(18) 3124. 0.0758 1.0619
92794.35 1.92090 1.081(18) 2926. 0.0758 1.0945
92803.66 1.92109 1.113(19) 2796. 0.0758 1.1042
92812.91 1.92128 1.116(19) 2772. 0.0758 1.0952
92822.16 1.92147 1.102(19) 2827. 0.0758 1.0731
92831.45 1.92167 1.084(19) 2888. 0.0758 1.0434
92840.75 1.92186 1.040(18) 3078. 0.0758 1.0108
92850.05 1.92205 1.012(18) 3213. 0.0758 0.9781
92859.35 1.92224 1.002(18) 3249. 0.0758 0.9460
92868.66 1.92244 0.936(17) 3615. 0.0758 0.9133
92877.91 1.92263 0.902(16) 3789. 0.0758 0.8778
92887.16 1.92282 0.828(15) 4363. 0.0758 0.8373
92896.45 1.92301 0.801(15) 4566. 0.0758 0.7906
92905.75 1.92320 0.748(14) 5024. 0.0758 0.7383
92915.05 1.92340 0.674(13) 5820. 0.0758 0.6820
92924.35 1.92359 0.614(12) 6653. 0.0758 0.6237
92933.66 1.92378 0.545(11) 7864. 0.0758 0.5656
92942.95 1.92397 0.495(11) 8891. 0.0758 0.5095
92952.25 1.92417 0.453(10) 9976. 0.0758 0.4566
92961.55 1.92436 0.397(9) 11772. 0.0758 0.4080
92970.85 1.92455 0.354(9) 13411. 0.0758 0.3642
92980.16 1.92474 0.314(8) 15637. 0.0758 0.3255
92989.45 1.92494 0.290(8) 17273. 0.0758 0.2917
92998.75 1.92513 0.258(7) 19824. 0.0758 0.2627
93008.05 1.92532 0.233(7) 22272. 0.0758 0.2379
93017.35 1.92552 0.219(6) 23896. 0.0758 0.2169
93026.66 1.92571 0.189(6) 29079. 0.0758 0.1992
93035.95 1.92590 0.182(6) 29822. 0.0758 0.1843
93045.25 1.92609 0.170(6) 32263. 0.0758 0.1717
93054.55 1.92629 0.152(5) 37135. 0.0758 0.1612
93063.85 1.92648 0.152(5) 36068. 0.0759 0.1522
93073.16 1.92667 0.143(5) 38539. 0.0759 0.1446
93082.45 1.92686 0.142(5) 38726. 0.0759 0.1381
93091.75 1.92706 0.136(5) 40654. 0.0759 0.1325
93101.05 1.92725 0.128(5) 43765. 0.0759 0.1277
93110.35 1.92744 0.123(5) 44820. 0.0759 0.1235
93119.66 1.92763 0.113(4) 49920. 0.0759 0.1198
93128.95 1.92783 0.113(4) 49580. 0.0759 0.1166
93138.3 1.92802 0.112(4) 50192. 0.0759 0.1137
93147.66 1.92821 0.116(5) 47256. 0.0759 0.1111
93156.95 1.92841 0.105(4) 54399. 0.0759 0.1088
93166.25 1.92860 0.114(4) 49724. 0.0759 0.1068
93175.55 1.92879 0.108(4) 52983. 0.0759 0.1049
93184.85 1.92898 0.097(4) 58430. 0.0759 0.1032
93194.2 1.92918 0.101(4) 55657. 0.0759 0.1017
93203.55 1.92937 0.098(4) 58992. 0.0759 0.1003
93212.85 1.92956 0.100(4) 56758. 0.0759 0.0990
93222.16 1.92975 0.103(4) 54296. 0.0759 0.0978
93231.45 1.92995 0.100(4) 56626. 0.0759 0.0967
93240.8 1.93014 0.095(4) 61686. 0.0759 0.0957
93250.16 1.93033 0.097(4) 59375. 0.0759 0.0948
93259.45 1.93053 0.093(4) 62188. 0.0759 0.0939
93268.75 1.93072 0.091(4) 63400. 0.0759 0.0931
93278.1 1.93091 0.092(4) 63028. 0.0759 0.0924
93287.45 1.93111 0.095(4) 60942. 0.0759 0.0917
93296.75 1.93130 0.092(4) 62879. 0.0759 0.0910
93306.1 1.93149 0.090(4) 63777. 0.0759 0.0904
93315.45 1.93169 0.093(4) 61776. 0.0759 0.0898
93324.75 1.93188 0.098(4) 58050. 0.0759 0.0893
93334.1 1.93207 0.096(4) 59370. 0.0759 0.0888
93343.45 1.93227 0.089(4) 64872. 0.0759 0.0883
93352.75 1.93246 0.088(4) 66274. 0.0759 0.0878
93362.1 1.93265 0.087(4) 68052. 0.0759 0.0874
93371.45 1.93285 0.094(4) 59614. 0.0759 0.0870
93380.75 1.93304 0.088(4) 65298. 0.0759 0.0866
93390.1 1.93323 0.089(4) 63819. 0.0759 0.0863
93399.45 1.93343 0.087(4) 65119. 0.0759 0.0859
93408.8 1.93362 0.077(4) 77238. 0.0759 0.0856
93418.16 1.93381 0.081(4) 70583. 0.0759 0.0853
93427.45 1.93400 0.086(4) 66330. 0.0759 0.0850
93436.8 1.93420 0.083(4) 69225. 0.0759 0.0847
93446.16 1.93439 0.082(4) 68969. 0.0759 0.0844
93455.5 1.93459 0.081(4) 71175. 0.0759 0.0842
93464.85 1.93478 0.081(4) 70610. 0.0759 0.0839
93474.2 1.93497 0.079(4) 73729. 0.0759 0.0837
93483.55 1.93517 0.079(4) 72634. 0.0759 0.0834
93492.91 1.93536 0.081(4) 71039. 0.0759 0.0832
93502.25 1.93555 0.083(4) 69829. 0.0759 0.0830
93511.6 1.93575 0.083(4) 70675. 0.0759 0.0828
93520.95 1.93594 0.080(4) 73003. 0.0759 0.0826
93530.3 1.93613 0.079(4) 74182. 0.0759 0.0825
93539.66 1.93633 0.079(4) 74856. 0.0759 0.0823
93549.0 1.93652 0.085(4) 69649. 0.0759 0.0821
93558.35 1.93671 0.085(4) 69219. 0.0759 0.0820
93567.7 1.93691 0.075(4) 81247. 0.0759 0.0818
93577.05 1.93710 0.078(4) 75297. 0.0759 0.0817
93586.41 1.93730 0.079(4) 75428. 0.0759 0.0815
93595.8 1.93749 0.078(4) 76269. 0.0759 0.0814
93605.16 1.93768 0.080(4) 73556. 0.0759 0.0812
93614.5 1.93788 0.076(4) 78785. 0.0759 0.0811
93623.85 1.93807 0.084(4) 68269. 0.0759 0.0810
93633.2 1.93826 0.084(4) 70637. 0.0759 0.0809
93642.6 1.93846 0.084(4) 70309. 0.0759 0.0808
93651.95 1.93865 0.081(4) 72477. 0.0759 0.0807
93661.3 1.93885 0.0705(34) 87371. 0.07593 0.08055
93670.7 1.93904 0.080(4) 72901. 0.0759 0.0804
93680.05 1.93923 0.081(4) 71964. 0.0759 0.0803
93689.41 1.93943 0.079(4) 75685. 0.0759 0.0803
93698.8 1.93962 0.081(4) 73750. 0.0759 0.0802
93708.16 1.93982 0.081(4) 72087. 0.0759 0.0801
93717.5 1.94001 0.083(4) 70861. 0.0759 0.0800
93726.91 1.94020 0.084(4) 71403. 0.0759 0.0799
93736.3 1.94040 0.086(4) 67107. 0.0759 0.0798
93745.66 1.94059 0.081(4) 71706. 0.0759 0.0797
93755.0 1.94079 0.080(4) 73213. 0.0759 0.0797
93764.41 1.94098 0.079(4) 74929. 0.0759 0.0796
93773.8 1.94117 0.078(4) 74076. 0.0759 0.0795
93783.16 1.94137 0.076(4) 76672. 0.0759 0.0794
93792.5 1.94156 0.077(4) 77739. 0.0760 0.0794
93801.91 1.94176 0.0715(34) 85526. 0.07595 0.07932
93811.3 1.94195 0.077(4) 78138. 0.0760 0.0793
93820.7 1.94215 0.078(4) 75678. 0.0760 0.0792
93830.05 1.94234 0.080(4) 71321. 0.0760 0.0791
93839.41 1.94253 0.077(4) 76571. 0.0760 0.0791
93848.8 1.94273 0.079(4) 72405. 0.0760 0.0790
93858.2 1.94292 0.077(4) 75462. 0.0760 0.0790
93867.6 1.94312 0.077(4) 76065. 0.0760 0.0789
93877.0 1.94331 0.083(4) 69021. 0.0760 0.0789
93886.35 1.94351 0.081(4) 70790. 0.0760 0.0788
93895.7 1.94370 0.077(4) 76969. 0.0760 0.0788
93905.1 1.94389 0.0727(35) 81311. 0.07597 0.07871
93914.5 1.94409 0.0688(35) 83994. 0.07597 0.07866
93923.91 1.94428 0.078(4) 72473. 0.0760 0.0786
93933.3 1.94448 0.080(4) 72394. 0.0760 0.0786
93942.7 1.94467 0.078(4) 72821. 0.0760 0.0785
93952.1 1.94487 0.073(4) 80748. 0.0760 0.0785
93961.5 1.94506 0.075(4) 75965. 0.0760 0.0784
93970.91 1.94526 0.078(4) 72250. 0.0760 0.0784
93980.3 1.94545 0.078(4) 72915. 0.0760 0.0784
93989.7 1.94564 0.081(4) 70124. 0.0760 0.0783
93999.1 1.94584 0.080(4) 70299. 0.0760 0.0783
94008.5 1.94603 0.082(4) 68429. 0.0760 0.0783
94017.91 1.94623 0.082(4) 67463. 0.0760 0.0782
94027.3 1.94642 0.072(4) 81064. 0.0760 0.0782
94036.7 1.94662 0.074(4) 76706. 0.0760 0.0782
94046.1 1.94681 0.081(4) 70541. 0.0760 0.0781
94055.5 1.94701 0.084(4) 67418. 0.0760 0.0781
94064.91 1.94720 0.077(4) 73609. 0.0760 0.0781
94074.3 1.94740 0.074(4) 77044. 0.0760 0.0780
94083.7 1.94759 0.073(4) 78920. 0.0760 0.0780
94093.1 1.94779 0.081(4) 69201. 0.0760 0.0780
94102.5 1.94798 0.074(4) 76769. 0.0760 0.0779
94111.91 1.94817 0.076(4) 73446. 0.0760 0.0779
94121.35 1.94837 0.079(4) 73034. 0.0760 0.0779
94130.8 1.94857 0.076(4) 76802. 0.0760 0.0779
94140.2 1.94876 0.075(4) 77348. 0.0760 0.0778
94149.6 1.94895 0.080(4) 70129. 0.0760 0.0778
94159.0 1.94915 0.082(4) 68990. 0.0760 0.0778
94168.41 1.94934 0.083(4) 68336. 0.0760 0.0778
94177.85 1.94954 0.083(4) 69796. 0.0760 0.0777
94187.3 1.94974 0.074(4) 80284. 0.0760 0.0777
94196.7 1.94993 0.0724(35) 82305. 0.07601 0.07770
94206.1 1.95012 0.080(4) 72908. 0.0760 0.0777
94215.5 1.95032 0.073(4) 80748. 0.0760 0.0777
94224.95 1.95051 0.0703(34) 84486. 0.07601 0.07763
94234.41 1.95071 0.0707(35) 82634. 0.07601 0.07761
94243.8 1.95090 0.073(4) 79458. 0.0760 0.0776
94253.2 1.95110 0.0721(35) 82472. 0.07601 0.07757
94262.65 1.95130 0.077(4) 75792. 0.0760 0.0776
94272.1 1.95149 0.079(4) 72713. 0.0760 0.0775
94281.5 1.95169 0.078(4) 73254. 0.0760 0.0775
94290.91 1.95188 0.073(4) 79151. 0.0760 0.0775
94300.35 1.95208 0.079(4) 72334. 0.0760 0.0775
94309.8 1.95227 0.080(4) 71204. 0.0760 0.0775
94319.2 1.95247 0.079(4) 72812. 0.0760 0.0774
94328.65 1.95266 0.076(4) 77308. 0.0760 0.0774
94338.1 1.95286 0.080(4) 70205. 0.0760 0.0774
94347.5 1.95305 0.080(4) 70581. 0.0760 0.0774
94356.95 1.95325 0.074(4) 77932. 0.0760 0.0765
94366.41 1.95344 0.072(4) 77372. 0.0760 0.0765
94375.8 1.95364 0.071(4) 79244. 0.0760 0.0765
94385.25 1.95383 0.0668(34) 87045. 0.07603 0.07649
94394.7 1.95403 0.078(4) 70713. 0.0760 0.0765
94404.15 1.95422 0.081(4) 68411. 0.0760 0.0765
94413.6 1.95442 0.072(4) 79333. 0.0760 0.0765
94423.0 1.95461 0.077(4) 72305. 0.0760 0.0765
94432.45 1.95481 0.078(4) 71499. 0.0760 0.0765
94441.91 1.95501 0.074(4) 76785. 0.0760 0.0765
94451.35 1.95520 0.075(4) 74576. 0.0760 0.0765
94460.8 1.95540 0.074(4) 76123. 0.0760 0.0760
94470.25 1.95559 0.078(4) 70553. 0.0760 0.0760
94479.7 1.95579 0.071(4) 79689. 0.0760 0.0760
94489.15 1.95598 0.074(4) 77746. 0.0760 0.0760
94498.6 1.95618 0.080(4) 69435. 0.0760 0.0760
94508.05 1.95638 0.077(4) 72146. 0.0760 0.0760
94517.5 1.95657 0.076(4) 74383. 0.0760 0.0760
94526.95 1.95677 0.079(4) 69992. 0.0760 0.0760
94536.41 1.95696 0.079(4) 68843. 0.0761 0.0761
94545.85 1.95716 0.077(4) 72321. 0.0761 0.0761
94555.3 1.95735 0.077(4) 72423. 0.0761 0.0761
94564.75 1.95755 0.077(4) 71271. 0.0761 0.0761
94574.2 1.95774 0.074(4) 74999. 0.0761 0.0761
94583.65 1.95794 0.075(4) 73094. 0.0761 0.0761
94593.15 1.95814 0.076(4) 72016. 0.0761 0.0761
94602.6 1.95833 0.081(4) 66239. 0.0761 0.0761
94612.05 1.95853 0.079(4) 69210. 0.0761 0.0761
94621.5 1.95872 0.077(4) 70700. 0.0761 0.0761
94630.95 1.95892 0.078(4) 69804. 0.0761 0.0761
94640.45 1.95912 0.080(4) 67313. 0.0761 0.0761
94649.91 1.95931 0.075(4) 74024. 0.0761 0.0761
94659.35 1.95951 0.081(4) 67663. 0.0761 0.0761
94668.85 1.95970 0.077(4) 71961. 0.0761 0.0761
94678.3 1.95990 0.079(4) 68935. 0.0761 0.0761
94687.75 1.96010 0.076(4) 72817. 0.0761 0.0761
94697.25 1.96029 0.074(4) 76849. 0.0761 0.0761
94706.7 1.96049 0.078(4) 70434. 0.0761 0.0761
94716.15 1.96068 0.075(4) 75714. 0.0761 0.0761
94725.65 1.96088 0.075(4) 75267. 0.0761 0.0761
94735.1 1.96108 0.077(4) 73846. 0.0761 0.0761
94744.55 1.96127 0.074(4) 79274. 0.0761 0.0761
94754.05 1.96147 0.077(4) 74306. 0.0761 0.0761
94763.55 1.96166 0.077(4) 74460. 0.0761 0.0761
94773.05 1.96186 0.073(4) 77364. 0.0761 0.0761
94782.5 1.96206 0.0655(33) 90511. 0.07608 0.07608
94791.95 1.96225 0.075(4) 76064. 0.0761 0.0761
94801.45 1.96245 0.074(4) 77882. 0.0761 0.0761
94810.95 1.96265 0.0689(34) 87130. 0.07609 0.07609
94820.41 1.96284 0.078(4) 73637. 0.0761 0.0761
94829.85 1.96304 0.080(4) 72896. 0.0761 0.0761
94839.35 1.96323 0.073(4) 79394. 0.0761 0.0761
94848.85 1.96343 0.0686(34) 84682. 0.07609 0.07609
94858.35 1.96363 0.0702(35) 83212. 0.07609 0.07609
94867.85 1.96382 0.074(4) 78586. 0.0761 0.0761
94877.3 1.96402 0.072(4) 79026. 0.0761 0.0761
94886.75 1.96422 0.070(4) 80082. 0.0761 0.0761
94896.25 1.96441 0.0703(35) 81871. 0.07610 0.07610
94905.75 1.96461 0.077(4) 74867. 0.0761 0.0761
94915.25 1.96481 0.080(4) 69807. 0.0761 0.0761
94924.75 1.96500 0.072(4) 78417. 0.0761 0.0761
94934.25 1.96520 0.072(4) 80833. 0.0761 0.0761
94943.75 1.96540 0.079(4) 71980. 0.0761 0.0761
94953.25 1.96559 0.077(4) 74343. 0.0761 0.0761
94962.75 1.96579 0.078(4) 72592. 0.0761 0.0761
94972.25 1.96599 0.075(4) 76234. 0.0761 0.0761
94981.75 1.96618 0.073(4) 78667. 0.0761 0.0761
94991.25 1.96638 0.0701(35) 82405. 0.07611 0.07611
95000.75 1.96658 0.075(4) 77253. 0.0761 0.0761
95010.25 1.96677 0.078(4) 74394. 0.0761 0.0761
95019.75 1.96697 0.072(4) 79595. 0.0761 0.0761
95029.25 1.96717 0.073(4) 79436. 0.0761 0.0761
95038.75 1.96736 0.076(4) 74343. 0.0761 0.0761
95048.25 1.96756 0.0719(35) 82146. 0.07612 0.07612
95057.75 1.96776 0.074(4) 79222. 0.0761 0.0761
95067.25 1.96795 0.075(4) 77593. 0.0761 0.0761
95076.75 1.96815 0.0720(35) 81688. 0.07612 0.07612
95086.25 1.96835 0.0691(34) 85292. 0.07612 0.07612
95095.75 1.96854 0.0705(35) 83817. 0.07613 0.07613
95105.25 1.96874 0.075(4) 77958. 0.0761 0.0761
95114.75 1.96894 0.078(4) 75090. 0.0761 0.0761
95124.25 1.96913 0.074(4) 77861. 0.0761 0.0761
95133.8 1.96933 0.0704(35) 82546. 0.07613 0.07613
95143.35 1.96953 0.077(4) 72649. 0.0761 0.0761
95152.85 1.96972 0.075(4) 75405. 0.0761 0.0761
95162.35 1.96992 0.078(4) 70396. 0.0761 0.0761
95171.85 1.97012 0.075(4) 74124. 0.0761 0.0761
95181.35 1.97031 0.074(4) 76035. 0.0761 0.0761
95190.91 1.97051 0.074(4) 75569. 0.0761 0.0761
95200.45 1.97071 0.071(4) 78286. 0.0761 0.0761
95209.95 1.97091 0.073(4) 74464. 0.0761 0.0761
95219.45 1.97110 0.072(4) 78159. 0.0761 0.0761
95228.95 1.97130 0.079(4) 70391. 0.0761 0.0761
95238.5 1.97150 0.076(4) 74449. 0.0761 0.0761
95248.05 1.97169 0.078(4) 69949. 0.0761 0.0761
95257.55 1.97189 0.083(4) 64746. 0.0761 0.0761
95267.1 1.97209 0.081(4) 67571. 0.0761 0.0761
95276.65 1.97229 0.081(4) 66335. 0.0762 0.0762
95286.15 1.97248 0.074(4) 75026. 0.0762 0.0762
95295.65 1.97268 0.078(4) 68085. 0.0762 0.0762
95305.2 1.97288 0.073(4) 75331. 0.0762 0.0762
95314.75 1.97308 0.077(4) 71894. 0.0762 0.0762
95324.25 1.97327 0.079(4) 69198. 0.0762 0.0762
95333.8 1.97347 0.078(4) 70284. 0.0762 0.0762
95343.35 1.97367 0.083(4) 63389. 0.0762 0.0762
95352.85 1.97386 0.080(4) 68864. 0.0762 0.0762
95362.41 1.97406 0.079(4) 68859. 0.0762 0.0762
95371.95 1.97426 0.068(4) 80511. 0.0762 0.0762
95381.45 1.97446 0.077(4) 69490. 0.0762 0.0762
95391.0 1.97465 0.075(4) 72588. 0.0762 0.0762
95400.55 1.97485 0.074(4) 71717. 0.0762 0.0762
95410.1 1.97505 0.071(4) 76737. 0.0762 0.0762
95419.65 1.97525 0.073(4) 74960. 0.0762 0.0762
95429.2 1.97545 0.070(4) 78088. 0.0762 0.0762
95438.75 1.97564 0.075(4) 71300. 0.0762 0.0762
95448.25 1.97584 0.075(4) 72020. 0.0762 0.0762
95457.8 1.97604 0.074(4) 74582. 0.0762 0.0762
95467.35 1.97623 0.079(4) 68712. 0.0762 0.0762
95476.91 1.97643 0.076(4) 73209. 0.0762 0.0762
95486.45 1.97663 0.079(4) 67345. 0.0762 0.0762
95496.0 1.97683 0.074(4) 73136. 0.0762 0.0762
95505.55 1.97703 0.0659(34) 84504. 0.07618 0.07618
95515.1 1.97722 0.076(4) 71630. 0.0762 0.0762
95524.65 1.97742 0.082(4) 64847. 0.0762 0.0762
95534.2 1.97762 0.078(4) 71535. 0.0762 0.0762
95543.75 1.97782 0.081(4) 66374. 0.0762 0.0762
95553.3 1.97801 0.074(4) 74402. 0.0762 0.0762
95562.85 1.97821 0.075(4) 72121. 0.0762 0.0762
95572.41 1.97841 0.075(4) 73948. 0.0762 0.0762
95582.0 1.97861 0.074(4) 76321. 0.0762 0.0762
95591.55 1.97881 0.072(4) 76523. 0.0762 0.0762
95601.1 1.97900 0.070(4) 80346. 0.0762 0.0762
95610.65 1.97920 0.075(4) 73784. 0.0762 0.0762
95620.2 1.97940 0.077(4) 74218. 0.0762 0.0762
95629.8 1.97960 0.079(4) 71284. 0.0762 0.0762
95639.35 1.97980 0.074(4) 73378. 0.0762 0.0762
95648.91 1.97999 0.071(4) 79266. 0.0762 0.0762
95658.45 1.98019 0.078(4) 69558. 0.0762 0.0762
95668.0 1.98039 0.072(4) 76046. 0.0762 0.0762
95677.6 1.98059 0.069(4) 80623. 0.0762 0.0762
95687.2 1.98079 0.070(4) 79464. 0.0762 0.0762
95696.75 1.98098 0.077(4) 69653. 0.0762 0.0762
95706.3 1.98118 0.077(4) 71750. 0.0762 0.0762
95715.91 1.98138 0.077(4) 70706. 0.0762 0.0762
95725.45 1.98158 0.078(4) 69271. 0.0762 0.0762
95735.0 1.98178 0.076(4) 72241. 0.0762 0.0762
95744.6 1.98197 0.077(4) 70623. 0.0762 0.0762
95754.2 1.98217 0.074(4) 73453. 0.0762 0.0762
95763.75 1.98237 0.079(4) 66141. 0.0762 0.0762
95773.3 1.98257 0.075(4) 72665. 0.0762 0.0762
95782.91 1.98277 0.082(4) 65333. 0.0762 0.0762
95792.5 1.98297 0.081(4) 67071. 0.0762 0.0762
95802.05 1.98316 0.083(4) 63652. 0.0762 0.0762
95811.6 1.98336 0.077(4) 70520. 0.0762 0.0762
95821.2 1.98356 0.078(4) 68975. 0.0762 0.0762
95830.8 1.98376 0.076(4) 70819. 0.0762 0.0762
95840.41 1.98396 0.083(4) 63889. 0.0762 0.0762
95850.0 1.98416 0.086(4) 60235. 0.0762 0.0762
95859.55 1.98435 0.081(4) 65234. 0.0762 0.0762
95869.1 1.98455 0.084(4) 62221. 0.0762 0.0762
95878.7 1.98475 0.077(4) 67905. 0.0762 0.0762
95888.3 1.98495 0.071(4) 75924. 0.0762 0.0762
95897.91 1.98515 0.084(4) 61760. 0.0762 0.0762
95907.5 1.98535 0.078(4) 66997. 0.0762 0.0762
95917.1 1.98555 0.074(4) 72845. 0.0762 0.0762
95926.7 1.98574 0.076(4) 70703. 0.0762 0.0762
95936.3 1.98594 0.078(4) 68567. 0.0762 0.0762
95945.85 1.98614 0.077(4) 67493. 0.0762 0.0762
95955.45 1.98634 0.071(4) 77205. 0.0762 0.0762
95965.05 1.98654 0.081(4) 63504. 0.0762 0.0762
95974.6 1.98674 0.083(4) 62109. 0.0762 0.0762
95984.2 1.98693 0.083(4) 62221. 0.0762 0.0762
95993.8 1.98713 0.073(4) 75665. 0.0762 0.0762
96003.41 1.98733 0.075(4) 70511. 0.0762 0.0762
96013.0 1.98753 0.072(4) 75195. 0.0762 0.0762
96022.6 1.98773 0.076(4) 70904. 0.0763 0.0763
96032.2 1.98793 0.078(4) 69123. 0.0763 0.0763
96041.8 1.98813 0.078(4) 67808. 0.0763 0.0763
96051.45 1.98833 0.079(4) 68274. 0.0763 0.0763
96061.1 1.98853 0.078(4) 69485. 0.0763 0.0763
96070.7 1.98873 0.078(4) 69003. 0.0763 0.0763
96080.3 1.98892 0.081(4) 66641. 0.0763 0.0763
96089.91 1.98912 0.077(4) 70896. 0.0763 0.0763
96099.5 1.98932 0.072(4) 75790. 0.0763 0.0763
96109.1 1.98952 0.073(4) 74451. 0.0763 0.0763
96118.7 1.98972 0.071(4) 77996. 0.0763 0.0763
96128.3 1.98992 0.075(4) 71532. 0.0763 0.0763
96137.91 1.99012 0.074(4) 72645. 0.0763 0.0763
96147.55 1.99032 0.076(4) 71702. 0.0763 0.0763
96157.2 1.99052 0.077(4) 70443. 0.0763 0.0763
96166.8 1.99071 0.073(4) 76660. 0.0763 0.0763
96176.41 1.99091 0.075(4) 72382. 0.0763 0.0763
96186.0 1.99111 0.073(4) 74111. 0.0763 0.0763
96195.6 1.99131 0.072(4) 75051. 0.0763 0.0763
96205.25 1.99151 0.073(4) 74454. 0.0763 0.0763
96214.91 1.99171 0.075(4) 73282. 0.0763 0.0763
96224.5 1.99191 0.070(4) 77781. 0.0763 0.0763
96234.1 1.99211 0.067(4) 81020. 0.0763 0.0763
96243.7 1.99231 0.073(4) 74827. 0.0763 0.0763
96253.35 1.99251 0.072(4) 76857. 0.0763 0.0763
96263.0 1.99271 0.073(4) 73946. 0.0763 0.0763
96272.6 1.99291 0.0688(35) 81699. 0.07628 0.07628
96282.2 1.99310 0.074(4) 72836. 0.0763 0.0763
96291.85 1.99330 0.073(4) 76057. 0.0763 0.0763
96301.5 1.99350 0.073(4) 73648. 0.0763 0.0763
96311.1 1.99370 0.073(4) 74205. 0.0763 0.0763
96320.75 1.99390 0.071(4) 78172. 0.0763 0.0763
96330.41 1.99410 0.071(4) 79699. 0.0763 0.0763
96340.0 1.99430 0.078(4) 69874. 0.0763 0.0763
96349.66 1.99450 0.076(4) 71856. 0.0763 0.0763
96359.3 1.99470 0.076(4) 71420. 0.0763 0.0763
96368.91 1.99490 0.078(4) 67850. 0.0763 0.0763
96378.55 1.99510 0.077(4) 69556. 0.0763 0.0763
96388.2 1.99530 0.080(4) 65652. 0.0763 0.0763
96397.85 1.99550 0.076(4) 70108. 0.0763 0.0763
96407.5 1.99570 0.075(4) 68918. 0.0763 0.0763
96417.1 1.99590 0.073(4) 71824. 0.0763 0.0763
96426.75 1.99610 0.075(4) 70722. 0.0763 0.0763
96436.41 1.99630 0.078(4) 67134. 0.0763 0.0763
96446.05 1.99650 0.076(4) 70685. 0.0763 0.0763
96455.7 1.99670 0.085(4) 60377. 0.0763 0.0763
96465.35 1.99690 0.083(4) 62713. 0.0763 0.0763
96475.0 1.99710 0.075(4) 70183. 0.0763 0.0763
96484.66 1.99730 0.074(4) 69958. 0.0763 0.0763
96494.3 1.99749 0.074(4) 69922. 0.0763 0.0763
96503.95 1.99769 0.080(4) 64471. 0.0763 0.0763
96513.6 1.99789 0.080(4) 63827. 0.0763 0.0763
96523.25 1.99809 0.075(4) 71039. 0.0763 0.0763
96532.91 1.99829 0.075(4) 69675. 0.0763 0.0763
96542.55 1.99849 0.077(4) 67374. 0.0763 0.0763
96552.2 1.99869 0.076(4) 68042. 0.0763 0.0763
96561.85 1.99889 0.075(4) 69462. 0.0763 0.0763
96571.5 1.99909 0.076(4) 66956. 0.0763 0.0763
96581.16 1.99929 0.077(4) 66957. 0.0763 0.0763
96590.8 1.99949 0.075(4) 70205. 0.0763 0.0763
96600.45 1.99969 0.076(4) 69854. 0.0763 0.0763
96610.16 1.99989 0.084(4) 61133. 0.0763 0.0763
96619.8 2.00009 0.075(4) 69906. 0.0763 0.0763
96629.45 2.00029 0.078(4) 65677. 0.0763 0.0763
96639.16 2.00049 0.082(4) 62684. 0.0763 0.0763
96648.8 2.00069 0.074(4) 71732. 0.0763 0.0763
96658.45 2.00089 0.075(4) 70799. 0.0763 0.0763
96668.16 2.00109 0.081(4) 64497. 0.0763 0.0763
96677.8 2.00129 0.083(4) 62403. 0.0763 0.0763
96687.45 2.00149 0.085(4) 60765. 0.0763 0.0763
96697.16 2.00169 0.079(4) 65532. 0.0763 0.0763
96706.8 2.00189 0.081(4) 61872. 0.0763 0.0763
96716.45 2.00209 0.077(4) 67935. 0.0763 0.0763
96726.16 2.00229 0.075(4) 69549. 0.0763 0.0763
96735.8 2.00249 0.079(4) 65925. 0.0763 0.0763
96745.45 2.00269 0.081(4) 65968. 0.0763 0.0763
96755.16 2.00289 0.087(4) 57518. 0.0764 0.0764
96764.85 2.00310 0.073(4) 73307. 0.0764 0.0764
96774.5 2.00330 0.077(4) 68793. 0.0764 0.0764
96784.16 2.00350 0.075(4) 68839. 0.0764 0.0764
96793.85 2.00370 0.073(4) 70291. 0.0764 0.0764
96803.55 2.00390 0.076(4) 68829. 0.0764 0.0764
96813.25 2.00410 0.082(4) 61248. 0.0764 0.0764
96822.91 2.00430 0.080(4) 63411. 0.0764 0.0764
96832.55 2.00450 0.081(4) 63945. 0.0764 0.0764
96842.25 2.00470 0.074(4) 70646. 0.0764 0.0764
96851.95 2.00490 0.072(4) 72382. 0.0764 0.0764
96861.66 2.00510 0.076(4) 67751. 0.0764 0.0764
96871.35 2.00530 0.072(4) 73573. 0.0764 0.0764
96881.05 2.00550 0.075(4) 68670. 0.0764 0.0764
96890.7 2.00570 0.074(4) 70561. 0.0764 0.0764
96900.35 2.00590 0.076(4) 68301. 0.0764 0.0764
96910.05 2.00610 0.079(4) 63895. 0.0764 0.0764
96919.75 2.00630 0.076(4) 69086. 0.0764 0.0764
96929.45 2.00650 0.076(4) 68540. 0.0764 0.0764
96939.16 2.00670 0.077(4) 67685. 0.0764 0.0764
96948.85 2.00690 0.084(4) 60128. 0.0764 0.0764
96958.55 2.00711 0.084(4) 60247. 0.0764 0.0764
96968.25 2.00731 0.079(4) 65665. 0.0764 0.0764
96977.95 2.00751 0.077(4) 67966. 0.0764 0.0764
96987.66 2.00771 0.079(4) 65508. 0.0764 0.0764
96997.35 2.00791 0.077(4) 67309. 0.0764 0.0764
97007.05 2.00811 0.071(4) 73843. 0.0764 0.0764
97016.75 2.00831 0.074(4) 69643. 0.0764 0.0764
97026.45 2.00851 0.071(4) 72481. 0.0764 0.0764
97036.16 2.00871 0.077(4) 67289. 0.0764 0.0764
97045.85 2.00891 0.079(4) 66869. 0.0764 0.0764
97055.55 2.00911 0.080(4) 63767. 0.0764 0.0764
97065.25 2.00931 0.069(4) 76465. 0.0764 0.0764
97074.95 2.00952 0.075(4) 67635. 0.0764 0.0764
97084.66 2.00972 0.073(4) 69549. 0.0764 0.0764
97094.35 2.00992 0.075(4) 67380. 0.0764 0.0764
97104.05 2.01012 0.075(4) 68738. 0.0764 0.0764
97113.75 2.01032 0.074(4) 69726. 0.0764 0.0764
97123.5 2.01052 0.074(4) 69890. 0.0764 0.0764
97133.25 2.01072 0.079(4) 64444. 0.0764 0.0764
97142.95 2.01092 0.083(4) 61184. 0.0764 0.0764
97152.66 2.01112 0.078(4) 66040. 0.0764 0.0764
97162.35 2.01132 0.075(4) 67549. 0.0764 0.0764
97172.05 2.01153 0.074(4) 66822. 0.0764 0.0764
97181.8 2.01173 0.077(4) 65800. 0.0764 0.0764
97191.55 2.01193 0.086(4) 58736. 0.0764 0.0764
97201.25 2.01213 0.079(4) 65706. 0.0764 0.0764
97210.95 2.01233 0.079(4) 63237. 0.0764 0.0764
97220.66 2.01253 0.072(4) 71758. 0.0764 0.0764
97230.41 2.01273 0.074(4) 70517. 0.0764 0.0764
97240.16 2.01294 0.075(4) 68027. 0.0764 0.0764
97249.85 2.01314 0.076(4) 67173. 0.0764 0.0764
97259.55 2.01334 0.073(4) 69866. 0.0764 0.0764
97269.3 2.01354 0.074(4) 70007. 0.0764 0.0764
97279.05 2.01374 0.075(4) 68458. 0.0764 0.0764
97288.75 2.01394 0.078(4) 65620. 0.0764 0.0764
97298.45 2.01414 0.075(4) 70185. 0.0764 0.0764
97308.2 2.01434 0.072(4) 73957. 0.0764 0.0764
97317.95 2.01455 0.077(4) 66441. 0.0764 0.0764
97327.66 2.01475 0.074(4) 68926. 0.0764 0.0764
97337.41 2.01495 0.073(4) 72532. 0.0764 0.0764
97347.16 2.01515 0.077(4) 66830. 0.0764 0.0764
97356.85 2.01535 0.070(4) 75108. 0.0764 0.0764
97366.6 2.01555 0.075(4) 69887. 0.0764 0.0764
97376.35 2.01575 0.081(4) 62646. 0.0764 0.0764
97386.1 2.01596 0.071(4) 75923. 0.0764 0.0764
97395.85 2.01616 0.078(4) 64811. 0.0764 0.0764
97405.55 2.01636 0.075(4) 68791. 0.0764 0.0764
97415.3 2.01656 0.079(4) 65461. 0.0764 0.0764
97425.05 2.01676 0.080(4) 64128. 0.0764 0.0764
97434.8 2.01696 0.079(4) 65456. 0.0764 0.0764
97444.55 2.01717 0.077(4) 67603. 0.0764 0.0764
97454.25 2.01737 0.079(4) 64786. 0.0764 0.0764
97464.0 2.01757 0.078(4) 65979. 0.0765 0.0765
97473.75 2.01777 0.082(4) 61719. 0.0765 0.0765
97483.5 2.01797 0.077(4) 69035. 0.0765 0.0765
97493.25 2.01817 0.080(4) 62879. 0.0765 0.0765
97503.0 2.01838 0.081(4) 63260. 0.0765 0.0765
97512.75 2.01858 0.078(4) 65796. 0.0765 0.0765
97522.5 2.01878 0.072(4) 72825. 0.0765 0.0765
97532.25 2.01898 0.073(4) 69847. 0.0765 0.0765
97542.0 2.01918 0.076(4) 68604. 0.0765 0.0765
97551.75 2.01939 0.079(4) 65609. 0.0765 0.0765
97561.5 2.01959 0.074(4) 70595. 0.0765 0.0765
97571.3 2.01979 0.074(4) 70431. 0.0765 0.0765
97581.05 2.01999 0.071(4) 75391. 0.0765 0.0765
97590.8 2.02019 0.077(4) 66478. 0.0765 0.0765
97600.55 2.02040 0.070(4) 76109. 0.0765 0.0765
97610.3 2.02060 0.075(4) 68593. 0.0765 0.0765
97620.05 2.02080 0.078(4) 65127. 0.0765 0.0765
97629.8 2.02100 0.073(4) 72501. 0.0765 0.0765
97639.6 2.02120 0.079(4) 64612. 0.0765 0.0765
97649.41 2.02141 0.079(4) 65985. 0.0765 0.0765
97659.16 2.02161 0.081(4) 63640. 0.0765 0.0765
97668.91 2.02181 0.079(4) 66418. 0.0765 0.0765
97678.66 2.02201 0.074(4) 70344. 0.0765 0.0765
97688.41 2.02221 0.076(4) 69084. 0.0765 0.0765
97698.2 2.02242 0.079(4) 66415. 0.0765 0.0765
97708.0 2.02262 0.081(4) 63967. 0.0765 0.0765
97717.75 2.02282 0.078(4) 65174. 0.0765 0.0765
97727.5 2.02302 0.072(4) 72636. 0.0765 0.0765
97737.3 2.02323 0.078(4) 65582. 0.0765 0.0765
97747.05 2.02343 0.077(4) 66050. 0.0765 0.0765
97756.8 2.02363 0.079(4) 64016. 0.0765 0.0765
97766.6 2.02383 0.078(4) 65273. 0.0765 0.0765
97776.41 2.02404 0.077(4) 65740. 0.0765 0.0765
97786.16 2.02424 0.077(4) 65960. 0.0765 0.0765
97795.91 2.02444 0.078(4) 65925. 0.0765 0.0765
97805.7 2.02464 0.081(4) 62958. 0.0765 0.0765
97815.5 2.02485 0.078(4) 65685. 0.0765 0.0765
97825.3 2.02505 0.075(4) 68295. 0.0765 0.0765
97835.1 2.02525 0.075(4) 68884. 0.0765 0.0765
97844.85 2.02545 0.070(4) 73458. 0.0765 0.0765
97854.6 2.02566 0.074(4) 68702. 0.0765 0.0765
97864.41 2.02586 0.081(4) 63192. 0.0765 0.0765
97874.2 2.02606 0.076(4) 68410. 0.0765 0.0765
97884.0 2.02626 0.080(4) 62485. 0.0765 0.0765
97893.8 2.02647 0.074(4) 70259. 0.0765 0.0765
97903.6 2.02667 0.075(4) 69020. 0.0765 0.0765
97913.41 2.02687 0.073(4) 72017. 0.0765 0.0765
97923.2 2.02708 0.077(4) 64668. 0.0765 0.0765
97932.95 2.02728 0.076(4) 66697. 0.0765 0.0765
97942.7 2.02748 0.081(4) 62582. 0.0765 0.0765
97952.5 2.02768 0.081(4) 62925. 0.0765 0.0765
97962.3 2.02789 0.072(4) 73187. 0.0765 0.0765
97972.1 2.02809 0.076(4) 66431. 0.0765 0.0765
97981.91 2.02829 0.083(4) 60359. 0.0765 0.0765
97991.7 2.02849 0.080(4) 63539. 0.0765 0.0765
98001.5 2.02870 0.072(4) 70265. 0.0765 0.0765
98011.3 2.02890 0.074(4) 66221. 0.0765 0.0765
98021.1 2.02910 0.076(4) 66391. 0.0765 0.0765
98030.91 2.02931 0.076(4) 67523. 0.0765 0.0765
98040.7 2.02951 0.075(4) 68036. 0.0765 0.0765
98050.5 2.02971 0.071(4) 71534. 0.0765 0.0765
98060.3 2.02991 0.068(4) 73882. 0.0765 0.0765
98070.1 2.03012 0.073(4) 68451. 0.0765 0.0765
98079.95 2.03032 0.073(4) 69711. 0.0765 0.0765
98089.8 2.03052 0.078(4) 64271. 0.0765 0.0765
98099.6 2.03073 0.082(4) 60454. 0.0765 0.0765
98109.41 2.03093 0.076(4) 66332. 0.0765 0.0765
98119.2 2.03113 0.080(4) 61146. 0.0765 0.0765
98129.0 2.03134 0.077(4) 64117. 0.0765 0.0765
98138.8 2.03154 0.074(4) 67424. 0.0765 0.0765
98148.6 2.03174 0.077(4) 64303. 0.0765 0.0765
98158.41 2.03194 0.075(4) 67906. 0.0765 0.0765
98168.25 2.03215 0.080(4) 63470. 0.0765 0.0765
98178.1 2.03235 0.081(4) 62302. 0.0766 0.0766
98187.91 2.03256 0.084(4) 58552. 0.0766 0.0766
98197.7 2.03276 0.074(4) 69025. 0.0766 0.0766
98207.5 2.03296 0.073(4) 68410. 0.0766 0.0766
98217.35 2.03317 0.080(4) 63307. 0.0766 0.0766
98227.2 2.03337 0.078(4) 65204. 0.0766 0.0766
98237.0 2.03357 0.080(4) 62366. 0.0766 0.0766
98246.8 2.03377 0.077(4) 66126. 0.0766 0.0766
98256.66 2.03398 0.076(4) 67199. 0.0766 0.0766
98266.5 2.03418 0.071(4) 72597. 0.0766 0.0766
98276.3 2.03439 0.072(4) 70576. 0.0766 0.0766
98286.1 2.03459 0.078(4) 63818. 0.0766 0.0766
98295.95 2.03479 0.078(4) 64735. 0.0766 0.0766
98305.8 2.03500 0.077(4) 65709. 0.0766 0.0766
98315.6 2.03520 0.073(4) 70978. 0.0766 0.0766
98325.45 2.03540 0.075(4) 68517. 0.0766 0.0766
98335.3 2.03561 0.079(4) 63377. 0.0766 0.0766
98345.1 2.03581 0.075(4) 67238. 0.0766 0.0766
98354.95 2.03601 0.077(4) 65428. 0.0766 0.0766
98364.8 2.03622 0.081(4) 61859. 0.0766 0.0766
98374.6 2.03642 0.080(4) 62123. 0.0766 0.0766
98384.45 2.03662 0.080(4) 62988. 0.0766 0.0766
98394.3 2.03683 0.077(4) 64790. 0.0766 0.0766
98404.16 2.03703 0.076(4) 65834. 0.0766 0.0766
98414.0 2.03724 0.077(4) 64894. 0.0766 0.0766
98423.8 2.03744 0.081(4) 60860. 0.0766 0.0766
98433.66 2.03764 0.082(4) 60892. 0.0766 0.0766
98443.5 2.03785 0.084(4) 57123. 0.0766 0.0766
98453.35 2.03805 0.079(4) 63360. 0.0766 0.0766
98463.2 2.03825 0.079(4) 63400. 0.0766 0.0766
98473.05 2.03846 0.075(4) 68277. 0.0766 0.0766
98482.91 2.03866 0.081(4) 60203. 0.0766 0.0766
98492.7 2.03887 0.074(4) 68102. 0.0766 0.0766
98502.55 2.03907 0.073(4) 68854. 0.0766 0.0766
98512.45 2.03927 0.075(4) 67506. 0.0766 0.0766
98522.3 2.03948 0.072(4) 70550. 0.0766 0.0766
98532.16 2.03968 0.073(4) 68827. 0.0766 0.0766
98542.0 2.03989 0.079(4) 64373. 0.0766 0.0766
98551.85 2.04009 0.077(4) 66355. 0.0766 0.0766
98561.7 2.04029 0.081(4) 61943. 0.0766 0.0766
98571.55 2.04050 0.078(4) 65726. 0.0766 0.0766
98581.41 2.04070 0.074(4) 67474. 0.0766 0.0766
98591.25 2.04091 0.074(4) 69087. 0.0766 0.0766
98601.16 2.04111 0.073(4) 69059. 0.0766 0.0766
98611.0 2.04131 0.079(4) 63011. 0.0766 0.0766
98620.85 2.04152 0.076(4) 69270. 0.0766 0.0766
98630.7 2.04172 0.077(4) 66079. 0.0766 0.0766
98640.55 2.04193 0.081(4) 61721. 0.0766 0.0766
98650.45 2.04213 0.079(4) 65665. 0.0766 0.0766
98660.3 2.04234 0.078(4) 65497. 0.0766 0.0766
98670.16 2.04254 0.074(4) 67896. 0.0766 0.0766
98680.05 2.04274 0.074(4) 68011. 0.0766 0.0766
98689.91 2.04295 0.082(4) 60526. 0.0766 0.0766
98699.75 2.04315 0.074(4) 69572. 0.0766 0.0766
98709.66 2.04336 0.076(4) 66480. 0.0766 0.0766
98719.5 2.04356 0.083(4) 59477. 0.0766 0.0766
98729.35 2.04376 0.075(4) 69645. 0.0766 0.0766
98739.25 2.04397 0.079(4) 63979. 0.0766 0.0766
98749.16 2.04417 0.077(4) 66128. 0.0766 0.0766
98759.0 2.04438 0.077(4) 65505. 0.0766 0.0766
98768.85 2.04458 0.073(4) 71300. 0.0766 0.0766
98778.75 2.04479 0.074(4) 70376. 0.0766 0.0766
98788.66 2.04499 0.086(4) 57785. 0.0766 0.0766
98798.55 2.04520 0.083(4) 60352. 0.0766 0.0766
98808.41 2.04540 0.079(4) 62847. 0.0766 0.0766
98818.25 2.04560 0.071(4) 71219. 0.0766 0.0766
98828.16 2.04581 0.074(4) 67826. 0.0766 0.0766
98838.05 2.04601 0.076(4) 67295. 0.0766 0.0766
98847.95 2.04622 0.076(4) 65977. 0.0766 0.0766
98857.85 2.04642 0.077(4) 64769. 0.0766 0.0766
98867.7 2.04663 0.083(4) 59806. 0.0767 0.0767
98877.55 2.04683 0.083(4) 60727. 0.0767 0.0767
98887.45 2.04704 0.084(4) 58180. 0.0767 0.0767
98897.35 2.04724 0.077(4) 64493. 0.0767 0.0767
98907.25 2.04745 0.083(4) 59063. 0.0767 0.0767
98917.16 2.04765 0.085(4) 56940. 0.0767 0.0767
98927.05 2.04786 0.078(4) 63982. 0.0767 0.0767
98936.95 2.04806 0.078(4) 62398. 0.0767 0.0767
98946.85 2.04827 0.079(4) 60876. 0.0767 0.0767
98956.75 2.04847 0.081(4) 60218. 0.0767 0.0767
98966.6 2.04868 0.076(4) 65180. 0.0767 0.0767
98976.45 2.04888 0.082(4) 59306. 0.0767 0.0767
98986.35 2.04908 0.080(4) 62353. 0.0767 0.0767
98996.3 2.04929 0.081(4) 60942. 0.0767 0.0767
99006.2 2.04950 0.089(4) 52906. 0.0767 0.0767
99016.1 2.04970 0.078(4) 63614. 0.0767 0.0767
99026.0 2.04991 0.073(4) 68762. 0.0767 0.0767
99035.9 2.05011 0.074(4) 68592. 0.0767 0.0767
99045.85 2.05032 0.085(4) 56720. 0.0767 0.0767
99055.75 2.05052 0.085(4) 56727. 0.0767 0.0767
99065.66 2.05073 0.073(4) 70404. 0.0767 0.0767
99075.55 2.05093 0.072(4) 71593. 0.0767 0.0767
99085.45 2.05114 0.078(4) 62444. 0.0767 0.0767
99095.35 2.05134 0.078(4) 64569. 0.0767 0.0767
99105.25 2.05155 0.081(4) 62759. 0.0767 0.0767
99115.16 2.05175 0.082(4) 61660. 0.0767 0.0767
99125.05 2.05196 0.082(4) 61391. 0.0767 0.0767
99134.95 2.05216 0.078(4) 66179. 0.0767 0.0767
99144.85 2.05237 0.077(4) 67289. 0.0767 0.0767
99154.8 2.05257 0.079(4) 64707. 0.0767 0.0767
99164.75 2.05278 0.077(4) 66515. 0.0767 0.0767
99174.66 2.05298 0.079(4) 64527. 0.0767 0.0767
99184.55 2.05319 0.078(4) 64568. 0.0767 0.0767
99194.45 2.05339 0.075(4) 68379. 0.0767 0.0767
99204.4 2.05360 0.079(4) 64636. 0.0767 0.0767
99214.35 2.05381 0.082(4) 62897. 0.0767 0.0767
99224.25 2.05401 0.083(4) 61306. 0.0767 0.0767
99234.16 2.05421 0.082(4) 61450. 0.0767 0.0767
99244.05 2.05442 0.075(4) 67891. 0.0767 0.0767
99254.0 2.05463 0.075(4) 68400. 0.0767 0.0767
99263.95 2.05483 0.082(4) 61659. 0.0767 0.0767
99273.85 2.05504 0.085(4) 57934. 0.0767 0.0767
99283.8 2.05524 0.083(4) 60164. 0.0767 0.0767
99293.75 2.05545 0.077(4) 65288. 0.0767 0.0767
99303.66 2.05565 0.079(4) 62111. 0.0767 0.0767
99313.55 2.05586 0.078(4) 63688. 0.0767 0.0767
99323.5 2.05606 0.079(4) 63507. 0.0767 0.0767
99333.45 2.05627 0.078(4) 64133. 0.0767 0.0767
99343.35 2.05648 0.082(4) 59848. 0.0767 0.0767
99353.3 2.05668 0.083(4) 60982. 0.0767 0.0767
99363.25 2.05689 0.079(4) 65103. 0.0767 0.0767
99373.16 2.05709 0.075(4) 67766. 0.0767 0.0771
99383.1 2.05730 0.076(4) 67648. 0.0767 0.0771
99393.05 2.05750 0.077(4) 67503. 0.0767 0.0771
99403.0 2.05771 0.082(4) 63152. 0.0767 0.0771
99412.95 2.05792 0.077(4) 68185. 0.0767 0.0771
99422.85 2.05812 0.077(4) 66401. 0.0767 0.0771
99432.8 2.05833 0.072(4) 72084. 0.0767 0.0771
99442.75 2.05853 0.079(4) 64110. 0.0767 0.0771
99452.7 2.05874 0.083(4) 61501. 0.0767 0.0771
99462.66 2.05895 0.080(4) 65713. 0.0767 0.0772
99472.6 2.05915 0.083(4) 62573. 0.0767 0.0772
99482.55 2.05936 0.079(4) 66217. 0.0767 0.0772
99492.5 2.05956 0.079(4) 65442. 0.0767 0.0772
99502.45 2.05977 0.073(4) 71820. 0.0767 0.0772
99512.4 2.05998 0.079(4) 65615. 0.0767 0.0772
99522.35 2.06018 0.082(4) 63369. 0.0767 0.0772
99532.3 2.06039 0.077(4) 69634. 0.0767 0.0772
99542.25 2.06059 0.084(4) 60930. 0.0767 0.0772
99552.2 2.06080 0.080(4) 63928. 0.0767 0.0772
99562.16 2.06101 0.077(4) 66347. 0.0768 0.0772
99572.1 2.06121 0.074(4) 70767. 0.0768 0.0772
99582.05 2.06142 0.079(4) 64902. 0.0768 0.0772
99592.0 2.06162 0.078(4) 67408. 0.0768 0.0772
99602.0 2.06183 0.075(4) 70310. 0.0768 0.0773
99611.95 2.06204 0.076(4) 66967. 0.0768 0.0773
99621.9 2.06224 0.073(4) 72553. 0.0768 0.0773
99631.9 2.06245 0.080(4) 65368. 0.0768 0.0773
99641.85 2.06266 0.076(4) 68431. 0.0768 0.0773
99651.8 2.06286 0.072(4) 72009. 0.0768 0.0773
99661.75 2.06307 0.075(4) 68625. 0.0768 0.0773
99671.7 2.06327 0.073(4) 72963. 0.0768 0.0773
99681.7 2.06348 0.083(4) 62096. 0.0768 0.0773
99691.66 2.06369 0.080(4) 64686. 0.0768 0.0773
99701.6 2.06389 0.075(4) 70017. 0.0768 0.0773
99711.6 2.06410 0.078(4) 66954. 0.0768 0.0774
99721.6 2.06431 0.080(4) 63887. 0.0768 0.0774
99731.6 2.06451 0.080(4) 65402. 0.0768 0.0774
99741.55 2.06472 0.081(4) 65439. 0.0768 0.0774
99751.5 2.06493 0.078(4) 67389. 0.0768 0.0774
99761.5 2.06513 0.078(4) 69154. 0.0768 0.0774
99771.45 2.06534 0.080(4) 65868. 0.0768 0.0774
99781.4 2.06554 0.073(4) 72051. 0.0768 0.0774
99791.4 2.06575 0.075(4) 70274. 0.0768 0.0774
99801.4 2.06596 0.081(4) 63521. 0.0768 0.0775
99811.4 2.06616 0.076(4) 68862. 0.0768 0.0775
99821.35 2.06637 0.079(4) 65709. 0.0768 0.0775
99831.3 2.06658 0.075(4) 70572. 0.0768 0.0775
99841.3 2.06678 0.077(4) 69091. 0.0768 0.0775
99851.3 2.06699 0.078(4) 65803. 0.0768 0.0775
99861.3 2.06720 0.076(4) 67189. 0.0768 0.0775
99871.3 2.06741 0.074(4) 70570. 0.0768 0.0775
99881.3 2.06761 0.079(4) 64457. 0.0768 0.0776
99891.25 2.06782 0.074(4) 70208. 0.0768 0.0776
99901.2 2.06802 0.071(4) 74641. 0.0768 0.0776
99911.2 2.06823 0.076(4) 68655. 0.0768 0.0776
99921.2 2.06844 0.080(4) 65033. 0.0768 0.0776
99931.2 2.06865 0.076(4) 68821. 0.0768 0.0776
99941.2 2.06885 0.071(4) 76058. 0.0768 0.0777
99951.2 2.06906 0.080(4) 66755. 0.0768 0.0777
99961.2 2.06927 0.075(4) 71978. 0.0768 0.0777
99971.2 2.06947 0.076(4) 68006. 0.0768 0.0777
99981.2 2.06968 0.073(4) 71832. 0.0768 0.0777
99991.2 2.06989 0.076(4) 70557. 0.0768 0.0777
100001.1 2.07009 0.077(4) 68250. 0.0768 0.0778
100011.0 2.07030 0.078(4) 69282. 0.0768 0.0778
100021.0 2.07050 0.082(4) 65221. 0.0768 0.0778
100031.0 2.07071 0.079(4) 68507. 0.0768 0.0778
100041.0 2.07092 0.083(4) 63411. 0.0768 0.0778
100051.0 2.07113 0.080(4) 66571. 0.0768 0.0779
100061.0 2.07133 0.074(4) 73082. 0.0768 0.0779
100071.0 2.07154 0.073(4) 74566. 0.0768 0.0779
100081.0 2.07175 0.082(4) 63421. 0.0768 0.0779
100091.0 2.07195 0.079(4) 67316. 0.0768 0.0780
100101.0 2.07216 0.077(4) 69746. 0.0768 0.0780
100111.0 2.07237 0.076(4) 71756. 0.0768 0.0780
100121.0 2.07257 0.079(4) 67671. 0.0768 0.0780
100131.0 2.07278 0.077(4) 71747. 0.0768 0.0781
100141.0 2.07299 0.083(4) 62559. 0.0768 0.0781
100151.0 2.07320 0.077(4) 69565. 0.0768 0.0781
100161.0 2.07340 0.076(4) 70161. 0.0768 0.0781
100171.0 2.07361 0.079(4) 67765. 0.0768 0.0782
100181.0 2.07382 0.075(4) 72689. 0.0768 0.0782
100191.0 2.07402 0.076(4) 69807. 0.0768 0.0782
100201.0 2.07423 0.080(4) 65145. 0.0768 0.0783
100211.0 2.07444 0.078(4) 68053. 0.0768 0.0783
100221.0 2.07464 0.080(4) 64704. 0.0768 0.0783
100231.0 2.07485 0.075(4) 70216. 0.0768 0.0784
100241.0 2.07506 0.077(4) 67239. 0.0768 0.0784
100251.0 2.07527 0.077(4) 67231. 0.0768 0.0785
100261.5 2.07548 0.071(4) 80886. 0.0768 0.0785
100272.0 2.07570 0.083(4) 59681. 0.0769 0.0786
100282.0 2.07591 0.081(4) 62165. 0.0769 0.0786
100292.0 2.07611 0.081(4) 62645. 0.0769 0.0787
100302.0 2.07632 0.081(4) 62438. 0.0769 0.0787
100312.0 2.07653 0.077(4) 67000. 0.0769 0.0788
100322.0 2.07674 0.080(4) 63316. 0.0769 0.0788
100332.0 2.07694 0.084(4) 59223. 0.0769 0.0789
100342.0 2.07715 0.079(4) 65009. 0.0769 0.0789
100352.0 2.07736 0.085(4) 59030. 0.0769 0.0790
100362.0 2.07756 0.082(4) 62389. 0.0769 0.0790
100372.0 2.07777 0.083(4) 60294. 0.0769 0.0791
100382.0 2.07798 0.084(4) 59964. 0.0769 0.0792
100392.0 2.07818 0.088(4) 56365. 0.0769 0.0792
100402.0 2.07839 0.084(4) 58906. 0.0769 0.0793
100412.0 2.07860 0.080(4) 61689. 0.0769 0.0794
100422.0 2.07881 0.085(4) 58254. 0.0769 0.0795
100432.0 2.07901 0.092(4) 54641. 0.0769 0.0796
100442.0 2.07922 0.088(4) 58554. 0.0769 0.0796
100452.0 2.07943 0.089(4) 56133. 0.0769 0.0797
100462.0 2.07963 0.081(4) 63209. 0.0769 0.0798
100472.0 2.07984 0.084(4) 62165. 0.0769 0.0799
100482.0 2.08005 0.089(4) 56946. 0.0769 0.0801
100492.0 2.08025 0.082(4) 63262. 0.0769 0.0802
100502.0 2.08046 0.078(4) 67420. 0.0769 0.0803
100512.0 2.08067 0.082(4) 63090. 0.0769 0.0804
100522.5 2.08089 0.0709(35) 81932. 0.07689 0.08055
100533.0 2.08110 0.077(4) 66399. 0.0769 0.0807
100543.0 2.08131 0.077(4) 67772. 0.0769 0.0809
100553.0 2.08152 0.076(4) 69345. 0.0769 0.0810
100563.0 2.08172 0.084(4) 60773. 0.0769 0.0812
100573.0 2.08193 0.085(4) 59921. 0.0769 0.0814
100583.0 2.08214 0.082(4) 63069. 0.0769 0.0816
100593.0 2.08235 0.083(4) 60865. 0.0769 0.0818
100603.0 2.08255 0.080(4) 64904. 0.0769 0.0820
100613.0 2.08276 0.077(4) 67819. 0.0769 0.0822
100623.0 2.08297 0.079(4) 64544. 0.0769 0.0825
100633.0 2.08317 0.084(4) 61124. 0.0769 0.0827
100643.0 2.08338 0.082(4) 64183. 0.0769 0.0830
100653.0 2.08359 0.085(4) 61184. 0.0769 0.0833
100663.0 2.08379 0.091(4) 55606. 0.0769 0.0836
100673.0 2.08400 0.092(4) 54068. 0.0769 0.0840
100683.5 2.08422 0.078(4) 72821. 0.0769 0.0844
100694.0 2.08444 0.090(4) 55879. 0.0769 0.0849
100704.0 2.08464 0.089(4) 55320. 0.0769 0.0853
100714.0 2.08485 0.082(4) 61455. 0.0769 0.0858
100724.0 2.08506 0.079(4) 65320. 0.0769 0.0864
100734.0 2.08526 0.093(4) 53362. 0.0769 0.0870
100744.0 2.08547 0.087(4) 57748. 0.0769 0.0877
100754.0 2.08568 0.086(4) 57179. 0.0769 0.0884
100764.0 2.08589 0.096(4) 51141. 0.0769 0.0893
100774.0 2.08609 0.095(4) 53029. 0.0769 0.0902
100784.0 2.08630 0.098(4) 50622. 0.0769 0.0913
100794.0 2.08651 0.089(4) 58176. 0.0769 0.0926
100804.0 2.08671 0.096(4) 52375. 0.0769 0.0941
100814.0 2.08692 0.107(5) 46830. 0.0769 0.0958
100824.5 2.08714 0.097(4) 57000. 0.0769 0.0980
100835.0 2.08736 0.106(5) 46619. 0.0769 0.1005
100845.0 2.08756 0.110(5) 45140. 0.0769 0.1033
100855.0 2.08777 0.115(5) 43694. 0.0769 0.1066
100865.0 2.08798 0.122(5) 40185. 0.0769 0.1103
100875.0 2.08818 0.116(5) 43068. 0.0769 0.1147
100885.0 2.08839 0.123(5) 40507. 0.0769 0.1197
100895.0 2.08860 0.134(5) 36438. 0.0769 0.1255
100905.0 2.08880 0.135(5) 36093. 0.0769 0.1320
100915.0 2.08901 0.141(5) 34327. 0.0769 0.1396
100925.0 2.08922 0.156(6) 30634. 0.0769 0.1485
100935.5 2.08944 0.148(5) 36145. 0.0769 0.1597
100946.0 2.08965 0.180(6) 26547. 0.0769 0.1734
100956.0 2.08986 0.200(7) 23126. 0.0769 0.1895
100966.0 2.09007 0.218(7) 20804. 0.0769 0.2088
100976.0 2.09027 0.243(7) 18177. 0.0769 0.2319
100986.0 2.09048 0.263(8) 16475. 0.0769 0.2586
100996.0 2.09069 0.285(8) 14836. 0.0770 0.2887
101006.0 2.09090 0.335(9) 11992. 0.0770 0.3212
101016.0 2.09110 0.367(10) 10794. 0.0770 0.3541
101026.0 2.09131 0.386(10) 10014. 0.0770 0.3849
101036.5 2.09153 0.360(9) 11777. 0.0770 0.4116
101047.0 2.09174 0.440(11) 8402. 0.0770 0.4297
101057.0 2.09195 0.445(11) 8234. 0.0770 0.4373
101067.0 2.09216 0.426(11) 8763. 0.0770 0.4354
101077.0 2.09237 0.428(11) 8692. 0.0770 0.4252
101087.0 2.09257 0.414(10) 9150. 0.0770 0.4083
101097.0 2.09278 0.395(10) 9672. 0.0770 0.3866
101107.0 2.09299 0.357(9) 11081. 0.0770 0.3616
101117.0 2.09319 0.331(9) 12219. 0.0770 0.3349
101127.0 2.09340 0.308(9) 13366. 0.0770 0.3075
101137.5 2.09362 0.258(8) 17741. 0.0770 0.2794
101148.0 2.09384 0.260(8) 16114. 0.0770 0.2529
101158.0 2.09404 0.232(7) 18357. 0.0770 0.2296
101168.0 2.09425 0.212(7) 20721. 0.0770 0.2086
101178.0 2.09446 0.215(7) 19747. 0.0770 0.1900
101188.0 2.09466 0.185(6) 24466. 0.0770 0.1739
101198.0 2.09487 0.182(6) 24453. 0.0770 0.1600
101208.0 2.09508 0.153(6) 30490. 0.0770 0.1482
101218.5 2.09529 0.135(5) 38481. 0.0770 0.1378
101229.0 2.09551 0.136(5) 34676. 0.0770 0.1291
101239.0 2.09572 0.128(5) 37523. 0.0770 0.1222
101249.0 2.09593 0.131(5) 36230. 0.0770 0.1165
101259.0 2.09613 0.119(5) 41328. 0.0770 0.1117
101269.0 2.09634 0.116(5) 41734. 0.0770 0.1077
101279.0 2.09655 0.111(5) 43576. 0.0770 0.1043
101289.0 2.09675 0.105(5) 46459. 0.0770 0.1014
101299.5 2.09697 0.089(4) 60694. 0.0770 0.0989
101310.0 2.09719 0.098(4) 50145. 0.0770 0.0968
101320.0 2.09740 0.097(4) 49848. 0.0770 0.0950
101330.0 2.09760 0.097(4) 51850. 0.0770 0.0935
101340.0 2.09781 0.102(5) 48192. 0.0770 0.0922
101350.0 2.09802 0.094(4) 51524. 0.0770 0.0910
101360.0 2.09822 0.092(4) 52680. 0.0770 0.0900
101370.0 2.09843 0.090(4) 53782. 0.0770 0.0891
101380.5 2.09865 0.082(4) 65584. 0.0770 0.0882
101391.0 2.09887 0.086(4) 58404. 0.0770 0.0875
101401.0 2.09907 0.090(4) 55263. 0.0770 0.0868
101411.0 2.09928 0.091(4) 55571. 0.0770 0.0862
101421.0 2.09949 0.093(4) 52703. 0.0770 0.0857
101431.0 2.09969 0.087(4) 56835. 0.0770 0.0852
101441.0 2.09990 0.088(4) 55915. 0.0770 0.0848
101451.5 2.10012 0.076(4) 70453. 0.0770 0.0843
101462.0 2.10034 0.075(4) 66062. 0.0770 0.0839
101472.0 2.10054 0.083(4) 59515. 0.0770 0.0836
101482.0 2.10075 0.085(4) 58045. 0.0770 0.0833
101492.0 2.10096 0.078(4) 64300. 0.0770 0.0830
101502.0 2.10116 0.078(4) 65450. 0.0770 0.0827
101512.0 2.10137 0.080(4) 63223. 0.0770 0.0825
101522.5 2.10159 0.080(4) 67250. 0.0770 0.0822
101533.0 2.10181 0.077(4) 67435. 0.0770 0.0820
101543.0 2.10201 0.081(4) 61913. 0.0770 0.0818
101553.0 2.10222 0.081(4) 61268. 0.0770 0.0816
101563.0 2.10243 0.078(4) 64495. 0.0770 0.0814
101573.0 2.10263 0.083(4) 59919. 0.0770 0.0812
101583.5 2.10285 0.082(4) 65084. 0.0770 0.0811
101594.0 2.10307 0.080(4) 63247. 0.0770 0.0809
101604.0 2.10328 0.079(4) 61642. 0.0770 0.0807
101614.0 2.10348 0.077(4) 64637. 0.0770 0.0806
101624.0 2.10369 0.087(4) 55792. 0.0770 0.0805
101634.0 2.10390 0.084(4) 57434. 0.0770 0.0804
101644.5 2.10411 0.074(4) 72227. 0.0770 0.0802
101655.0 2.10433 0.075(4) 64898. 0.0770 0.0801
101665.0 2.10454 0.079(4) 61741. 0.0770 0.0800
101675.0 2.10475 0.082(4) 60625. 0.0770 0.0799
101685.0 2.10495 0.082(4) 59073. 0.0770 0.0798
101695.0 2.10516 0.080(4) 61242. 0.0770 0.0798
101705.5 2.10538 0.077(4) 70281. 0.0770 0.0797
101716.0 2.10559 0.086(4) 56891. 0.0770 0.0796
101726.0 2.10580 0.082(4) 59939. 0.0770 0.0795
101736.0 2.10601 0.075(4) 68133. 0.0770 0.0794
101746.0 2.10622 0.077(4) 63764. 0.0770 0.0794
101756.0 2.10642 0.080(4) 59807. 0.0770 0.0793
101766.5 2.10664 0.073(4) 75063. 0.0771 0.0792
101777.0 2.10686 0.079(4) 63053. 0.0771 0.0792
101787.0 2.10706 0.076(4) 63817. 0.0771 0.0791
101797.0 2.10727 0.076(4) 65338. 0.0771 0.0791
101807.0 2.10748 0.084(4) 57878. 0.0771 0.0790
101817.0 2.10768 0.083(4) 57264. 0.0771 0.0790
101827.5 2.10790 0.0656(35) 83708. 0.07706 0.07891
101838.0 2.10812 0.079(4) 59798. 0.0771 0.0789
101848.0 2.10833 0.075(4) 63825. 0.0771 0.0788
101858.0 2.10853 0.079(4) 60367. 0.0771 0.0788
101868.0 2.10874 0.083(4) 58602. 0.0771 0.0787
101878.5 2.10896 0.077(4) 68155. 0.0771 0.0787
101889.0 2.10918 0.082(4) 58026. 0.0771 0.0786
101899.0 2.10938 0.081(4) 57700. 0.0771 0.0786
101909.0 2.10959 0.081(4) 57923. 0.0771 0.0786
101919.0 2.10980 0.078(4) 60942. 0.0771 0.0785
101929.5 2.11001 0.073(4) 72631. 0.0771 0.0785
101940.0 2.11023 0.083(4) 58093. 0.0771 0.0785
101950.0 2.11044 0.082(4) 57883. 0.0771 0.0784
101960.0 2.11065 0.080(4) 58766. 0.0771 0.0784
101970.0 2.11085 0.076(4) 63359. 0.0771 0.0784
101980.5 2.11107 0.073(4) 73155. 0.0771 0.0784
101991.0 2.11129 0.084(4) 56484. 0.0771 0.0783
102001.0 2.11149 0.085(4) 56636. 0.0771 0.0783
102011.0 2.11170 0.083(4) 58989. 0.0771 0.0783
102021.0 2.11191 0.083(4) 58333. 0.0771 0.0783
102031.5 2.11213 0.081(4) 64800. 0.0771 0.0782
102042.0 2.11234 0.081(4) 62509. 0.0771 0.0782
102052.0 2.11255 0.075(4) 66415. 0.0771 0.0782
102062.0 2.11276 0.078(4) 60887. 0.0771 0.0782
102072.0 2.11296 0.074(4) 67640. 0.0771 0.0781
102082.5 2.11318 0.071(4) 79244. 0.0771 0.0781
102093.0 2.11340 0.080(4) 64809. 0.0771 0.0781
102103.0 2.11361 0.081(4) 60680. 0.0771 0.0781
102113.0 2.11381 0.072(4) 72141. 0.0771 0.0781
102123.0 2.11402 0.078(4) 64479. 0.0771 0.0781
102133.5 2.11424 0.072(4) 74416. 0.0771 0.0780
102144.0 2.11445 0.081(4) 60513. 0.0771 0.0780
102154.0 2.11466 0.075(4) 66494. 0.0771 0.0780
102164.0 2.11487 0.076(4) 65602. 0.0771 0.0780
102174.0 2.11508 0.079(4) 61874. 0.0771 0.0780
102184.5 2.11529 0.073(4) 73412. 0.0771 0.0780
102195.0 2.11551 0.077(4) 64440. 0.0771 0.0779
102205.0 2.11572 0.074(4) 67327. 0.0771 0.0779
102215.0 2.11592 0.075(4) 65354. 0.0771 0.0779
102225.5 2.11614 0.071(4) 76781. 0.0771 0.0779
102236.0 2.11636 0.080(4) 61145. 0.0771 0.0779
102246.0 2.11657 0.078(4) 63301. 0.0771 0.0779
102256.0 2.11677 0.073(4) 68203. 0.0771 0.0779
102266.0 2.11698 0.079(4) 61102. 0.0771 0.0779
102276.5 2.11720 0.070(4) 77872. 0.0771 0.0778
102287.0 2.11741 0.081(4) 60259. 0.0771 0.0778
102297.0 2.11762 0.074(4) 66918. 0.0771 0.0778
102307.0 2.11783 0.078(4) 61399. 0.0771 0.0778
102317.5 2.11805 0.072(4) 74569. 0.0771 0.0778
102328.0 2.11826 0.076(4) 64128. 0.0771 0.0778
102338.0 2.11847 0.076(4) 63292. 0.0771 0.0778
102348.0 2.11868 0.077(4) 63820. 0.0771 0.0778
102358.5 2.11889 0.070(4) 77070. 0.0771 0.0778
102369.0 2.11911 0.075(4) 66717. 0.0771 0.0778
102379.0 2.11932 0.082(4) 58804. 0.0771 0.0777
102389.0 2.11953 0.077(4) 64159. 0.0771 0.0777
102399.5 2.11974 0.0668(35) 81947. 0.07712 0.07773
102410.0 2.11996 0.077(4) 63909. 0.0771 0.0777
102420.0 2.12017 0.073(4) 67941. 0.0771 0.0777
102430.0 2.12038 0.079(4) 61613. 0.0771 0.0777
102440.0 2.12058 0.080(4) 62354. 0.0771 0.0777
102450.5 2.12080 0.072(4) 74987. 0.0771 0.0777
102461.0 2.12102 0.080(4) 61471. 0.0771 0.0777
102471.0 2.12122 0.082(4) 58315. 0.0771 0.0777
102481.0 2.12143 0.073(4) 67030. 0.0771 0.0777
102491.5 2.12165 0.068(4) 76929. 0.0771 0.0777
102502.0 2.12187 0.074(4) 66312. 0.0771 0.0777
102512.0 2.12207 0.078(4) 60986. 0.0771 0.0776
102522.0 2.12228 0.074(4) 65851. 0.0771 0.0776
102532.5 2.12250 0.071(4) 74476. 0.0771 0.0776
102543.0 2.12271 0.078(4) 60630. 0.0771 0.0776
102553.0 2.12292 0.077(4) 64312. 0.0771 0.0776
102563.0 2.12313 0.077(4) 63175. 0.0771 0.0776
102573.5 2.12335 0.066(4) 80015. 0.0771 0.0776
102584.0 2.12356 0.080(4) 58373. 0.0771 0.0776
102594.0 2.12377 0.080(4) 60936. 0.0771 0.0776
102604.5 2.12399 0.072(4) 73197. 0.0771 0.0776
102615.0 2.12420 0.078(4) 60513. 0.0771 0.0776
102625.0 2.12441 0.079(4) 60723. 0.0771 0.0776
102635.0 2.12462 0.079(4) 59694. 0.0772 0.0776
102645.5 2.12484 0.073(4) 70040. 0.0772 0.0776
102656.0 2.12505 0.073(4) 65547. 0.0772 0.0776
102666.0 2.12526 0.083(4) 55218. 0.0772 0.0776
102676.0 2.12547 0.084(4) 54303. 0.0772 0.0776
102686.5 2.12569 0.076(4) 64885. 0.0772 0.0775
102697.0 2.12590 0.080(4) 58114. 0.0772 0.0775
102707.0 2.12611 0.077(4) 60188. 0.0772 0.0772
102717.0 2.12632 0.073(4) 64754. 0.0772 0.0772
102727.5 2.12653 0.072(4) 71821. 0.0772 0.0772
102738.0 2.12675 0.079(4) 59259. 0.0772 0.0772
102748.0 2.12696 0.080(4) 59355. 0.0772 0.0772
102758.5 2.12718 0.074(4) 69525. 0.0772 0.0772
102769.0 2.12739 0.078(4) 61554. 0.0772 0.0772
102779.0 2.12760 0.082(4) 57138. 0.0772 0.0772
102789.0 2.12781 0.084(4) 57041. 0.0772 0.0772
102799.5 2.12802 0.071(4) 75296. 0.0772 0.0772
102810.0 2.12824 0.077(4) 63512. 0.0772 0.0772
102820.0 2.12845 0.081(4) 59538. 0.0772 0.0772
102830.0 2.12866 0.075(4) 66754. 0.0772 0.0772
102840.5 2.12887 0.071(4) 76135. 0.0772 0.0772
102851.0 2.12909 0.082(4) 60856. 0.0772 0.0772
102861.0 2.12930 0.085(4) 58888. 0.0772 0.0772
102871.5 2.12951 0.071(4) 79848. 0.0772 0.0772
102882.0 2.12973 0.078(4) 65748. 0.0772 0.0772
102892.0 2.12994 0.077(4) 66301. 0.0772 0.0772
102902.0 2.13015 0.073(4) 72351. 0.0772 0.0772
102912.5 2.13036 0.0669(34) 85570. 0.07718 0.07718
102923.0 2.13058 0.072(4) 72317. 0.0772 0.0772
102933.0 2.13079 0.071(4) 72986. 0.0772 0.0772
102943.5 2.13101 0.0622(33) 93755. 0.07718 0.07718
102954.0 2.13122 0.076(4) 67817. 0.0772 0.0772
102964.0 2.13143 0.073(4) 70883. 0.0772 0.0772
102974.5 2.13165 0.0628(33) 93178. 0.07718 0.07718
102985.0 2.13186 0.074(4) 70882. 0.0772 0.0772
102995.0 2.13207 0.074(4) 70773. 0.0772 0.0772
103005.0 2.13228 0.076(4) 68267. 0.0772 0.0772
103015.5 2.13250 0.0656(34) 88073. 0.07719 0.07719
103026.0 2.13271 0.078(4) 65583. 0.0772 0.0772
103036.0 2.13292 0.074(4) 71459. 0.0772 0.0772
103046.5 2.13314 0.0650(34) 87955. 0.07719 0.07719
103057.0 2.13336 0.071(4) 73542. 0.0772 0.0772
103067.0 2.13356 0.076(4) 67560. 0.0772 0.0772
103077.5 2.13378 0.074(4) 73792. 0.0772 0.0772
103088.0 2.13400 0.072(4) 70371. 0.0772 0.0772
103098.0 2.13420 0.069(4) 75130. 0.0772 0.0772
103108.5 2.13442 0.0654(34) 87186. 0.07720 0.07720
103119.0 2.13464 0.077(4) 65483. 0.0772 0.0772
103129.0 2.13485 0.079(4) 64801. 0.0772 0.0772
103139.0 2.13505 0.075(4) 69111. 0.0772 0.0772
103149.5 2.13527 0.0646(34) 87525. 0.07720 0.07720
103160.0 2.13549 0.073(4) 69922. 0.0772 0.0772
103170.0 2.13569 0.076(4) 66060. 0.0772 0.0772
103180.5 2.13591 0.070(4) 77871. 0.0772 0.0772
103191.0 2.13613 0.072(4) 69308. 0.0772 0.0772
103201.0 2.13634 0.075(4) 66439. 0.0772 0.0772
103211.5 2.13655 0.071(4) 78337. 0.0772 0.0772
103222.0 2.13677 0.076(4) 65719. 0.0772 0.0772
103232.0 2.13698 0.073(4) 70318. 0.0772 0.0772
103242.5 2.13720 0.0675(35) 81810. 0.07721 0.07721
103253.0 2.13741 0.075(4) 64487. 0.0772 0.0772
103263.0 2.13762 0.073(4) 67893. 0.0772 0.0772
103273.5 2.13784 0.0656(35) 83925. 0.07721 0.07721
103284.0 2.13805 0.074(4) 67053. 0.0772 0.0772
103294.0 2.13826 0.076(4) 63656. 0.0772 0.0772
103304.5 2.13848 0.068(4) 77044. 0.0772 0.0772
103315.0 2.13870 0.065(4) 77390. 0.0772 0.0772
103325.0 2.13890 0.071(4) 69331. 0.0772 0.0772
103335.5 2.13912 0.069(4) 76393. 0.0772 0.0772
103346.0 2.13934 0.074(4) 66001. 0.0772 0.0772
103356.0 2.13954 0.081(4) 58368. 0.0772 0.0772
103366.5 2.13976 0.074(4) 70890. 0.0772 0.0772
103377.0 2.13998 0.076(4) 64498. 0.0772 0.0772
103387.0 2.14019 0.079(4) 59874. 0.0772 0.0772
103397.5 2.14040 0.069(4) 77340. 0.0772 0.0772
103408.0 2.14062 0.080(4) 59670. 0.0772 0.0772
103418.0 2.14083 0.077(4) 62221. 0.0772 0.0772
103428.5 2.14105 0.0642(35) 83437. 0.07723 0.07723
103439.0 2.14126 0.074(4) 64748. 0.0772 0.0772
103449.0 2.14147 0.077(4) 61649. 0.0772 0.0772
103459.5 2.14169 0.069(4) 77250. 0.0772 0.0772
103470.0 2.14191 0.073(4) 65720. 0.0772 0.0772
103480.0 2.14211 0.079(4) 59970. 0.0772 0.0772
103490.5 2.14233 0.073(4) 71493. 0.0772 0.0772
103501.0 2.14255 0.075(4) 66535. 0.0772 0.0772
103511.0 2.14275 0.083(4) 57514. 0.0772 0.0772
103521.5 2.14297 0.076(4) 68217. 0.0772 0.0772
103532.0 2.14319 0.076(4) 63412. 0.0772 0.0772
103542.0 2.14340 0.071(4) 68205. 0.0772 0.0772
103552.5 2.14361 0.0609(34) 87072. 0.07724 0.07724
103563.0 2.14383 0.071(4) 66694. 0.0772 0.0772
103573.5 2.14405 0.0641(35) 82375. 0.07724 0.07724
103584.0 2.14427 0.075(4) 64098. 0.0772 0.0772
103594.0 2.14447 0.079(4) 61991. 0.0772 0.0772
103604.5 2.14469 0.078(4) 67813. 0.0772 0.0772
103615.0 2.14491 0.088(4) 55379. 0.0772 0.0772
103625.0 2.14511 0.081(4) 61088. 0.0772 0.0772
103635.5 2.14533 0.069(4) 76836. 0.0772 0.0772
103646.0 2.14555 0.072(4) 66718. 0.0772 0.0772
103656.0 2.14576 0.073(4) 65863. 0.0772 0.0772
103666.5 2.14597 0.072(4) 74704. 0.0772 0.0772
103677.0 2.14619 0.087(4) 54962. 0.0772 0.0772
103687.5 2.14641 0.076(4) 69669. 0.0772 0.0772
103698.0 2.14663 0.077(4) 63004. 0.0772 0.0772
103708.0 2.14683 0.076(4) 63596. 0.0772 0.0772
103718.5 2.14705 0.0675(35) 81572. 0.07725 0.07725
103729.0 2.14727 0.080(4) 58386. 0.0772 0.0772
103739.0 2.14747 0.069(4) 71072. 0.0772 0.0772
103749.5 2.14769 0.068(4) 78684. 0.0773 0.0773
103760.0 2.14791 0.084(4) 56786. 0.0773 0.0773
103770.5 2.14813 0.076(4) 70474. 0.0773 0.0773
103781.0 2.14834 0.086(4) 55669. 0.0773 0.0773
103791.0 2.14855 0.081(4) 59872. 0.0773 0.0773
103801.5 2.14877 0.074(4) 69838. 0.0773 0.0773
103812.0 2.14899 0.081(4) 58337. 0.0773 0.0773
103822.0 2.14919 0.082(4) 59463. 0.0773 0.0773
103832.5 2.14941 0.070(4) 77129. 0.0773 0.0773
103843.0 2.14963 0.081(4) 60089. 0.0773 0.0773
103853.5 2.14984 0.079(4) 65251. 0.0773 0.0773
103864.0 2.15006 0.081(4) 58969. 0.0773 0.0773
103874.0 2.15027 0.081(4) 59360. 0.0773 0.0773
103884.5 2.15049 0.074(4) 70484. 0.0773 0.0773
103895.0 2.15070 0.086(4) 54871. 0.0773 0.0773
103905.5 2.15092 0.087(4) 58022. 0.0773 0.0773
103916.0 2.15114 0.090(4) 51687. 0.0773 0.0773
103926.0 2.15135 0.076(4) 63255. 0.0773 0.0773
103936.5 2.15156 0.072(4) 72611. 0.0773 0.0773
103947.0 2.15178 0.088(4) 52948. 0.0773 0.0773
103957.0 2.15199 0.095(5) 48527. 0.0773 0.0773
103967.5 2.15220 0.087(4) 57056. 0.0773 0.0773
103978.0 2.15242 0.088(4) 52754. 0.0773 0.0773
103988.5 2.15264 0.081(4) 62712. 0.0773 0.0773
103999.0 2.15286 0.090(4) 51030. 0.0773 0.0773
104009.0 2.15306 0.098(5) 46107. 0.0773 0.0773
104019.5 2.15328 0.085(4) 57792. 0.0773 0.0773
104030.0 2.15350 0.090(4) 49783. 0.0773 0.0773
104040.5 2.15372 0.082(4) 60154. 0.0773 0.0773
104051.0 2.15393 0.099(5) 44022. 0.0773 0.0773
104061.0 2.15414 0.094(5) 47620. 0.0773 0.0773
104071.5 2.15436 0.080(4) 63768. 0.0773 0.0773
104082.0 2.15457 0.103(5) 41438. 0.0773 0.0773
104092.5 2.15479 0.085(4) 56847. 0.0773 0.0773
104103.0 2.15501 0.088(4) 51539. 0.0773 0.0773
104113.5 2.15523 0.086(4) 55256. 0.0773 0.0773
104124.0 2.15544 0.087(4) 51061. 0.0773 0.0773
104134.0 2.15565 0.091(5) 47965. 0.0773 0.0773
104144.5 2.15587 0.087(4) 55739. 0.0773 0.0773
104155.0 2.15609 0.094(5) 47304. 0.0773 0.0773
104165.5 2.15630 0.089(4) 54456. 0.0773 0.0773
104176.0 2.15652 0.094(5) 47287. 0.0773 0.0773
104186.0 2.15673 0.096(5) 46413. 0.0773 0.0773
104196.5 2.15694 0.088(4) 55966. 0.0773 0.0773
104207.0 2.15716 0.088(4) 52344. 0.0773 0.0773
104217.5 2.15738 0.087(4) 56851. 0.0773 0.0773
104228.0 2.15760 0.096(5) 46920. 0.0773 0.0773
104238.5 2.15781 0.078(4) 65854. 0.0773 0.0773
104249.0 2.15803 0.085(4) 53587. 0.0773 0.0773
104259.0 2.15824 0.091(4) 49625. 0.0773 0.0773
104269.5 2.15846 0.085(4) 58279. 0.0773 0.0773
104280.0 2.15867 0.095(5) 47106. 0.0773 0.0773
104290.5 2.15889 0.084(4) 59593. 0.0773 0.0773
104301.0 2.15911 0.087(4) 53630. 0.0773 0.0773
104311.5 2.15933 0.080(4) 63152. 0.0773 0.0773
104322.0 2.15954 0.091(4) 49931. 0.0773 0.0773
104332.0 2.15975 0.087(4) 52853. 0.0773 0.0773
104342.5 2.15997 0.080(4) 63777. 0.0773 0.0773
104353.0 2.16018 0.098(5) 45083. 0.0773 0.0773
104363.5 2.16040 0.090(4) 53531. 0.0773 0.0773
104374.0 2.16062 0.088(4) 51192. 0.0773 0.0773
104384.5 2.16084 0.082(4) 60362. 0.0773 0.0773
104395.0 2.16105 0.091(5) 48734. 0.0773 0.0773
104405.0 2.16126 0.090(4) 49592. 0.0773 0.0773
104415.5 2.16148 0.084(4) 57664. 0.0773 0.0773
104426.0 2.16170 0.084(4) 54058. 0.0773 0.0773
104436.5 2.16191 0.082(4) 58612. 0.0773 0.0773
104447.0 2.16213 0.086(4) 52617. 0.0773 0.0773
104457.5 2.16235 0.085(4) 56458. 0.0773 0.0773
104468.0 2.16257 0.093(5) 47142. 0.0773 0.0773
104478.5 2.16278 0.077(4) 65288. 0.0773 0.0773
104489.0 2.16300 0.081(4) 54749. 0.0773 0.0773
104499.0 2.16321 0.078(4) 58095. 0.0773 0.0773
104509.5 2.16342 0.073(4) 67966. 0.0773 0.0773
104520.0 2.16364 0.083(4) 52517. 0.0773 0.0773
104530.5 2.16386 0.075(4) 64806. 0.0773 0.0773
104541.0 2.16408 0.084(4) 52557. 0.0773 0.0773
104551.5 2.16429 0.077(4) 63601. 0.0773 0.0773
104562.0 2.16451 0.085(4) 52334. 0.0773 0.0773
104572.5 2.16473 0.076(4) 63366. 0.0773 0.0773
104583.0 2.16495 0.083(4) 54159. 0.0773 0.0773
104593.5 2.16516 0.084(4) 57000. 0.0773 0.0773
104604.0 2.16538 0.084(4) 53953. 0.0773 0.0773
104614.0 2.16559 0.085(4) 53246. 0.0773 0.0773
104624.5 2.16581 0.077(4) 65247. 0.0773 0.0773
104635.0 2.16602 0.075(4) 62860. 0.0773 0.0773
104645.5 2.16624 0.077(4) 62865. 0.0773 0.0773
104656.0 2.16646 0.079(4) 56931. 0.0773 0.0773
104666.5 2.16667 0.082(4) 60101. 0.0773 0.0773
104677.0 2.16689 0.089(4) 50154. 0.0773 0.0773
104687.5 2.16711 0.072(4) 68230. 0.0773 0.0773
104698.0 2.16733 0.082(4) 55218. 0.0773 0.0773
104708.5 2.16754 0.078(4) 61249. 0.0773 0.0773
104719.0 2.16776 0.081(4) 54204. 0.0773 0.0773
104729.5 2.16798 0.073(4) 67636. 0.0773 0.0773
104740.0 2.16820 0.086(4) 52100. 0.0773 0.0773
104750.5 2.16841 0.079(4) 62349. 0.0773 0.0773
104761.0 2.16863 0.078(4) 56819. 0.0773 0.0773
104771.5 2.16885 0.066(4) 73455. 0.0773 0.0773
104782.0 2.16907 0.080(4) 54261. 0.0773 0.0773
104792.0 2.16927 0.072(4) 64022. 0.0773 0.0773
104802.5 2.16949 0.067(4) 73444. 0.0773 0.0773
104813.0 2.16971 0.081(4) 53197. 0.0773 0.0773
104823.5 2.16993 0.075(4) 65616. 0.0773 0.0773
104834.0 2.17014 0.087(4) 49748. 0.0773 0.0773
104844.5 2.17036 0.075(4) 64108. 0.0773 0.0773
104855.0 2.17058 0.085(4) 51961. 0.0773 0.0773
104865.5 2.17079 0.079(4) 61213. 0.0773 0.0773
104876.0 2.17101 0.083(4) 52945. 0.0773 0.0773
104886.5 2.17123 0.070(4) 70625. 0.0773 0.0773
104897.0 2.17145 0.088(5) 48252. 0.0773 0.0773
104907.5 2.17166 0.075(4) 63596. 0.0773 0.0773
104918.0 2.17188 0.080(4) 54971. 0.0773 0.0773
104928.5 2.17210 0.079(4) 59097. 0.0773 0.0773
104939.0 2.17232 0.084(4) 52995. 0.0773 0.0773
104949.5 2.17253 0.081(4) 58850. 0.0773 0.0773
104960.0 2.17275 0.089(5) 49112. 0.0773 0.0773
104970.5 2.17297 0.085(4) 54350. 0.0773 0.0773
104981.0 2.17319 0.088(4) 49676. 0.0773 0.0773
104991.5 2.17340 0.078(4) 61437. 0.0773 0.0773
105002.0 2.17362 0.081(4) 53370. 0.0773 0.0773
105012.5 2.17384 0.079(4) 59942. 0.0773 0.0773
105023.0 2.17406 0.083(4) 52639. 0.0773 0.0773
105033.5 2.17427 0.077(4) 62255. 0.0773 0.0773
105044.0 2.17449 0.088(4) 49808. 0.0773 0.0773
105054.5 2.17471 0.079(4) 62086. 0.0773 0.0773
105065.0 2.17492 0.088(4) 49530. 0.0773 0.0773
105075.5 2.17514 0.074(4) 66270. 0.0773 0.0773
105086.0 2.17536 0.081(4) 55233. 0.0773 0.0773
105096.5 2.17558 0.071(4) 68470. 0.0773 0.0773
105107.0 2.17579 0.082(4) 52974. 0.0773 0.0773
105117.5 2.17601 0.073(4) 66029. 0.0773 0.0773
105128.0 2.17623 0.082(4) 51871. 0.0773 0.0773
105138.5 2.17645 0.070(4) 70526. 0.0773 0.0773
105149.0 2.17666 0.087(4) 49550. 0.0773 0.0773
105159.5 2.17688 0.073(4) 67526. 0.0773 0.0773
105170.0 2.17710 0.077(4) 58350. 0.0773 0.0773
105180.5 2.17732 0.079(4) 60198. 0.0773 0.0773
105191.0 2.17753 0.080(4) 56281. 0.0773 0.0773
105201.5 2.17775 0.070(4) 71283. 0.0773 0.0773
105212.0 2.17797 0.077(4) 57433. 0.0773 0.0773
105222.5 2.17819 0.075(4) 63463. 0.0773 0.0773
105233.5 2.17841 0.071(4) 69783. 0.0773 0.0773
105244.0 2.17863 0.083(4) 52831. 0.0773 0.0773
105254.5 2.17885 0.070(4) 70247. 0.0773 0.0773
105265.0 2.17906 0.074(4) 60658. 0.0773 0.0773
105275.5 2.17928 0.075(4) 63624. 0.0773 0.0773
105286.0 2.17950 0.085(4) 51491. 0.0773 0.0773
105296.5 2.17972 0.078(4) 60951. 0.0773 0.0773
105307.0 2.17993 0.084(4) 52919. 0.0773 0.0773
105317.5 2.18015 0.083(4) 56386. 0.0773 0.0773
105328.0 2.18037 0.080(4) 54787. 0.0773 0.0774
105338.5 2.18059 0.075(4) 65657. 0.0773 0.0774
105349.0 2.18080 0.086(4) 50233. 0.0773 0.0774
105359.5 2.18102 0.072(4) 68917. 0.0773 0.0774
105370.0 2.18124 0.084(4) 52032. 0.0773 0.0774
105380.5 2.18146 0.074(4) 64837. 0.0773 0.0774
105391.0 2.18167 0.079(4) 54689. 0.0773 0.0774
105401.5 2.18189 0.072(4) 66949. 0.0773 0.0774
105412.5 2.18212 0.075(4) 65385. 0.0773 0.0774
105423.0 2.18234 0.082(4) 53613. 0.0773 0.0774
105433.5 2.18255 0.073(4) 67438. 0.0773 0.0774
105444.0 2.18277 0.083(4) 54339. 0.0773 0.0775
105454.5 2.18299 0.069(4) 72604. 0.0773 0.0775
105465.0 2.18321 0.081(4) 53264. 0.0773 0.0775
105475.5 2.18342 0.070(4) 67876. 0.0773 0.0775
105486.0 2.18364 0.075(4) 58377. 0.0773 0.0775
105496.5 2.18386 0.072(4) 66743. 0.0773 0.0775
105507.0 2.18407 0.080(4) 54361. 0.0773 0.0775
105517.5 2.18429 0.081(4) 58708. 0.0773 0.0775
105528.5 2.18452 0.076(4) 63949. 0.0773 0.0775
105539.0 2.18474 0.078(4) 57059. 0.0773 0.0775
105549.5 2.18495 0.074(4) 64161. 0.0773 0.0775
105560.0 2.18517 0.078(4) 56240. 0.0773 0.0775
105570.5 2.18539 0.072(4) 65231. 0.0773 0.0775
105581.0 2.18561 0.070(4) 63946. 0.0773 0.0775
105591.5 2.18582 0.070(4) 68279. 0.0773 0.0775
105602.0 2.18604 0.077(4) 56689. 0.0773 0.0775
105612.5 2.18626 0.069(4) 70271. 0.0773 0.0775
105623.5 2.18649 0.077(4) 60621. 0.0773 0.0775
105634.0 2.18670 0.077(4) 58190. 0.0773 0.0775
105644.5 2.18692 0.070(4) 70292. 0.0773 0.0775
105655.0 2.18714 0.071(4) 63940. 0.0773 0.0775
105665.5 2.18736 0.069(4) 70020. 0.0773 0.0775
105676.0 2.18757 0.074(4) 58317. 0.0773 0.0775
105686.5 2.18779 0.065(4) 75918. 0.0773 0.0775
105697.5 2.18802 0.070(4) 70391. 0.0773 0.0775
105708.0 2.18824 0.075(4) 60500. 0.0773 0.0775
105718.5 2.18845 0.073(4) 66022. 0.0773 0.0775
105729.0 2.18867 0.081(4) 54656. 0.0773 0.0775
105739.5 2.18889 0.072(4) 68491. 0.0773 0.0775
105750.0 2.18911 0.080(4) 54065. 0.0773 0.0775
105760.5 2.18932 0.070(4) 68379. 0.0773 0.0775
105771.5 2.18955 0.072(4) 66631. 0.0773 0.0775
105782.0 2.18977 0.079(4) 54496. 0.0773 0.0775
105792.5 2.18999 0.070(4) 67971. 0.0773 0.0775
105803.0 2.19020 0.080(4) 54273. 0.0773 0.0775
105813.5 2.19042 0.076(4) 60516. 0.0773 0.0775
105824.0 2.19064 0.077(4) 56510. 0.0773 0.0775
105834.5 2.19085 0.074(4) 64456. 0.0773 0.0775
105845.5 2.19108 0.076(4) 60515. 0.0773 0.0776
105856.0 2.19130 0.080(4) 53753. 0.0773 0.0776
105866.5 2.19152 0.076(4) 61515. 0.0773 0.0776
105877.0 2.19173 0.083(4) 51077. 0.0773 0.0776
105887.5 2.19195 0.078(4) 60963. 0.0773 0.0776
105898.5 2.19218 0.080(4) 57927. 0.0773 0.0776
105909.0 2.19240 0.086(4) 50717. 0.0773 0.0776
105919.5 2.19261 0.080(4) 58284. 0.0773 0.0776
105930.0 2.19283 0.082(4) 52912. 0.0773 0.0776
105940.5 2.19305 0.076(4) 61449. 0.0773 0.0776
105951.5 2.19328 0.073(4) 63727. 0.0773 0.0776
105962.0 2.19349 0.076(4) 56916. 0.0773 0.0776
105972.5 2.19371 0.073(4) 65224. 0.0773 0.0776
105983.0 2.19393 0.083(4) 52588. 0.0773 0.0776
105993.5 2.19415 0.076(4) 62300. 0.0773 0.0776
106004.5 2.19437 0.074(4) 65497. 0.0773 0.0776
106015.0 2.19459 0.083(4) 53551. 0.0773 0.0776
106025.5 2.19481 0.076(4) 63397. 0.0773 0.0776
106036.0 2.19503 0.083(4) 53324. 0.0773 0.0776
106046.5 2.19524 0.079(4) 61305. 0.0773 0.0776
106057.5 2.19547 0.077(4) 62504. 0.0773 0.0776
106068.0 2.19569 0.083(4) 51818. 0.0773 0.0776
106078.5 2.19591 0.074(4) 63254. 0.0773 0.0777
106089.0 2.19612 0.086(5) 47739. 0.0773 0.0777
106099.5 2.19634 0.072(4) 66211. 0.0773 0.0777
106110.5 2.19657 0.075(4) 63902. 0.0773 0.0777
106121.0 2.19679 0.092(5) 44958. 0.0773 0.0777
106131.5 2.19700 0.071(4) 65505. 0.0773 0.0777
106142.0 2.19722 0.073(4) 59368. 0.0773 0.0777
106152.5 2.19744 0.077(4) 60051. 0.0773 0.0777
106163.5 2.19767 0.076(4) 60330. 0.0773 0.0777
106174.0 2.19788 0.083(4) 50764. 0.0773 0.0777
106184.5 2.19810 0.077(4) 61325. 0.0773 0.0777
106195.0 2.19832 0.091(5) 44449. 0.0773 0.0777
106205.5 2.19854 0.078(4) 58378. 0.0773 0.0777
106216.5 2.19876 0.079(4) 58267. 0.0773 0.0778
106227.0 2.19898 0.075(4) 58189. 0.0773 0.0778
106237.5 2.19920 0.080(4) 57119. 0.0773 0.0778
106248.5 2.19943 0.082(4) 57125. 0.0773 0.0778
106259.0 2.19964 0.088(5) 48740. 0.0773 0.0778
106269.5 2.19986 0.077(4) 60957. 0.0773 0.0778
106280.5 2.20009 0.080(4) 56321. 0.0773 0.0778
106291.0 2.20030 0.079(4) 55655. 0.0773 0.0778
106301.5 2.20052 0.074(4) 65215. 0.0773 0.0778
106312.0 2.20074 0.084(4) 50526. 0.0773 0.0779
106322.5 2.20096 0.070(4) 69457. 0.0773 0.0779
106333.5 2.20118 0.076(4) 60782. 0.0773 0.0779
106344.0 2.20140 0.084(4) 50344. 0.0773 0.0779
106354.5 2.20162 0.077(4) 60583. 0.0773 0.0779
106365.5 2.20185 0.080(4) 57493. 0.0773 0.0779
106376.0 2.20206 0.080(4) 53313. 0.0773 0.0780
106386.5 2.20228 0.068(4) 70555. 0.0773 0.0780
106397.0 2.20250 0.085(4) 50527. 0.0773 0.0780
106407.5 2.20272 0.076(4) 62773. 0.0773 0.0780
106418.5 2.20294 0.077(4) 59326. 0.0773 0.0780
106429.0 2.20316 0.081(4) 51125. 0.0773 0.0780
106439.5 2.20338 0.072(4) 63986. 0.0773 0.0781
106450.5 2.20361 0.078(4) 59146. 0.0773 0.0781
106461.0 2.20382 0.089(5) 45288. 0.0773 0.0781
106471.5 2.20404 0.076(4) 60710. 0.0773 0.0781
106482.5 2.20427 0.077(4) 60296. 0.0773 0.0782
106493.0 2.20449 0.080(4) 52692. 0.0773 0.0782
106503.5 2.20470 0.076(4) 59381. 0.0773 0.0782
106514.5 2.20493 0.078(4) 59332. 0.0773 0.0782
106525.0 2.20515 0.093(5) 44194. 0.0773 0.0783
106535.5 2.20537 0.081(4) 55285. 0.0773 0.0783
106546.5 2.20559 0.080(4) 56673. 0.0773 0.0783
106557.0 2.20581 0.086(5) 48707. 0.0773 0.0784
106567.5 2.20603 0.075(4) 60808. 0.0773 0.0784
106578.5 2.20626 0.075(4) 61130. 0.0773 0.0785
106589.0 2.20647 0.081(4) 52400. 0.0773 0.0785
106599.5 2.20669 0.075(4) 62055. 0.0773 0.0785
106610.0 2.20691 0.087(5) 47396. 0.0773 0.0786
106620.5 2.20713 0.078(4) 58591. 0.0773 0.0786
106631.5 2.20735 0.077(4) 60686. 0.0773 0.0787
106642.0 2.20757 0.089(5) 46749. 0.0773 0.0788
106652.5 2.20779 0.080(4) 56775. 0.0773 0.0788
106663.5 2.20802 0.082(4) 56224. 0.0773 0.0789
106674.0 2.20823 0.087(5) 48971. 0.0773 0.0789
106684.5 2.20845 0.086(4) 52029. 0.0773 0.0790
106695.5 2.20868 0.081(4) 56003. 0.0773 0.0791
106706.0 2.20890 0.086(5) 47050. 0.0773 0.0792
106716.5 2.20911 0.081(4) 54007. 0.0773 0.0793
106727.5 2.20934 0.075(4) 59329. 0.0773 0.0794
106738.0 2.20956 0.086(5) 47588. 0.0773 0.0795
106748.5 2.20978 0.077(4) 58601. 0.0773 0.0796
106759.5 2.21000 0.076(4) 58271. 0.0773 0.0797
106770.5 2.21023 0.081(4) 55249. 0.0773 0.0798
106781.0 2.21045 0.098(5) 40976. 0.0773 0.0800
106791.5 2.21067 0.080(4) 57999. 0.0773 0.0801
106802.5 2.21089 0.088(5) 49273. 0.0773 0.0803
106813.0 2.21111 0.087(5) 46079. 0.0773 0.0805
106823.5 2.21133 0.085(4) 50866. 0.0773 0.0807
106834.5 2.21156 0.080(4) 55720. 0.0773 0.0809
106845.0 2.21177 0.085(5) 47209. 0.0773 0.0811
106855.5 2.21199 0.075(4) 59961. 0.0773 0.0814
106866.5 2.21222 0.076(4) 60468. 0.0773 0.0817
106877.0 2.21244 0.097(5) 41397. 0.0772 0.0820
106887.5 2.21265 0.086(4) 53212. 0.0772 0.0824
106898.5 2.21288 0.081(4) 56610. 0.0772 0.0828
106909.0 2.21310 0.091(5) 45693. 0.0772 0.0833
106919.5 2.21332 0.082(4) 56338. 0.0772 0.0839
106930.5 2.21354 0.081(4) 55867. 0.0772 0.0846
106941.0 2.21376 0.090(5) 46582. 0.0772 0.0854
106951.5 2.21398 0.091(4) 50469. 0.0772 0.0864
106962.5 2.21421 0.085(4) 55727. 0.0772 0.0877
106973.5 2.21443 0.090(4) 51178. 0.0772 0.0893
106984.0 2.21465 0.106(5) 38999. 0.0772 0.0913
106994.5 2.21487 0.097(5) 46806. 0.0772 0.0937
107005.5 2.21510 0.087(4) 53458. 0.0772 0.0967
107016.0 2.21531 0.107(5) 38166. 0.0772 0.1003
107026.5 2.21553 0.096(5) 48506. 0.0772 0.1044
107037.5 2.21576 0.098(5) 45478. 0.0772 0.1095
107048.0 2.21598 0.116(5) 35051. 0.0772 0.1149
107058.5 2.21619 0.113(5) 39118. 0.0772 0.1208
107069.5 2.21642 0.113(5) 38524. 0.0772 0.1273
107080.5 2.21665 0.116(5) 37284. 0.0772 0.1338
107091.0 2.21687 0.122(6) 32721. 0.0772 0.1396
107101.5 2.21708 0.119(5) 36088. 0.0772 0.1449
107112.5 2.21731 0.132(6) 31817. 0.0772 0.1497
107123.0 2.21753 0.152(6) 24706. 0.0772 0.1539
107133.5 2.21775 0.146(6) 27944. 0.0772 0.1579
107144.5 2.21797 0.150(6) 27325. 0.0772 0.1624
107155.5 2.21820 0.152(6) 26842. 0.0772 0.1673
107166.0 2.21842 0.174(7) 21120. 0.0772 0.1724
107176.5 2.21864 0.161(6) 25312. 0.0772 0.1779
107187.5 2.21886 0.169(7) 23573. 0.0772 0.1833
107198.0 2.21908 0.189(7) 19271. 0.0772 0.1874
107208.5 2.21930 0.170(7) 23537. 0.0772 0.1897
107219.5 2.21953 0.162(6) 25141. 0.0772 0.1895
107230.5 2.21975 0.179(7) 21513. 0.0772 0.1866
107241.0 2.21997 0.173(7) 21383. 0.0772 0.1813
107251.5 2.22019 0.155(6) 25894. 0.0772 0.1742
107262.5 2.22042 0.143(6) 28944. 0.0772 0.1655
107273.5 2.22064 0.152(6) 26273. 0.0772 0.1561
107284.0 2.22086 0.152(6) 24641. 0.0772 0.1470
107294.5 2.22108 0.133(6) 31645. 0.0772 0.1382
107305.5 2.22131 0.131(6) 32930. 0.0772 0.1296
107316.0 2.22152 0.135(6) 29389. 0.0772 0.1222
107326.5 2.22174 0.118(5) 36051. 0.0772 0.1157
107337.5 2.22197 0.111(5) 39291. 0.0772 0.1097
107348.5 2.22220 0.108(5) 40555. 0.0772 0.1047
107359.0 2.22241 0.106(5) 38382. 0.0772 0.1007
107369.5 2.22263 0.096(5) 45861. 0.0772 0.0973
107380.5 2.22286 0.094(5) 46936. 0.0772 0.0944
107391.5 2.22309 0.091(4) 49859. 0.0772 0.0920
107402.0 2.22330 0.101(5) 39704. 0.0772 0.0902
107412.5 2.22352 0.086(4) 52455. 0.0772 0.0886
107423.5 2.22375 0.088(4) 50666. 0.0772 0.0873
107434.5 2.22398 0.086(4) 52040. 0.0772 0.0861
107445.0 2.22420 0.093(5) 44523. 0.0772 0.0852
107455.5 2.22441 0.083(4) 55337. 0.0772 0.0845
107466.5 2.22464 0.085(4) 54237. 0.0772 0.0838
107477.5 2.22487 0.083(4) 55275. 0.0772 0.0832
107488.0 2.22509 0.085(4) 50018. 0.0772 0.0827
107498.5 2.22530 0.076(4) 59927. 0.0772 0.0823
107509.5 2.22553 0.080(4) 56718. 0.0772 0.0819
107520.5 2.22576 0.083(4) 54450. 0.0772 0.0816
107531.0 2.22598 0.088(5) 46562. 0.0772 0.0813
107541.5 2.22619 0.077(4) 59681. 0.0772 0.0810
107552.5 2.22642 0.077(4) 59521. 0.0772 0.0808
107563.5 2.22665 0.079(4) 57456. 0.0772 0.0805
107574.0 2.22687 0.090(5) 46119. 0.0772 0.0803
107584.5 2.22708 0.081(4) 57372. 0.0772 0.0802
107595.5 2.22731 0.075(4) 61713. 0.0772 0.0800
107606.5 2.22754 0.073(4) 62765. 0.0772 0.0798
107617.0 2.22776 0.080(4) 52002. 0.0772 0.0797
107627.5 2.22797 0.077(4) 60016. 0.0772 0.0796
107638.5 2.22820 0.078(4) 58903. 0.0772 0.0794
107649.5 2.22843 0.074(4) 61129. 0.0772 0.0793
107660.0 2.22865 0.088(5) 44991. 0.0772 0.0792
107670.5 2.22886 0.076(4) 58714. 0.0772 0.0791
107681.5 2.22909 0.073(4) 61604. 0.0772 0.0790
107692.5 2.22932 0.075(4) 60013. 0.0772 0.0790
107703.0 2.22954 0.085(5) 46757. 0.0772 0.0789
107713.5 2.22975 0.070(4) 64146. 0.0772 0.0788
107724.5 2.22998 0.075(4) 58455. 0.0772 0.0787
107735.5 2.23021 0.078(4) 54787. 0.0771 0.0787
107746.5 2.23044 0.075(4) 57448. 0.0771 0.0786
107757.0 2.23065 0.083(5) 48590. 0.0771 0.0785
107767.5 2.23087 0.082(4) 52116. 0.0771 0.0785
107778.5 2.23110 0.082(4) 52206. 0.0771 0.0784
107789.5 2.23133 0.079(4) 54772. 0.0771 0.0784
107800.0 2.23154 0.091(5) 42087. 0.0771 0.0783
107810.5 2.23176 0.083(4) 50195. 0.0771 0.0783
107821.5 2.23199 0.074(4) 58977. 0.0771 0.0783
107832.5 2.23222 0.076(4) 56735. 0.0771 0.0782
107843.5 2.23244 0.083(4) 51172. 0.0771 0.0782
107854.0 2.23266 0.096(5) 39925. 0.0771 0.0781
107864.5 2.23288 0.084(4) 51013. 0.0771 0.0781
107875.5 2.23311 0.084(4) 50382. 0.0771 0.0781
107886.5 2.23334 0.080(4) 54068. 0.0771 0.0780
107897.5 2.23356 0.073(4) 60466. 0.0771 0.0780
107908.0 2.23378 0.084(5) 46736. 0.0771 0.0780
107918.5 2.23400 0.081(4) 52904. 0.0771 0.0780
107929.5 2.23423 0.073(4) 61247. 0.0771 0.0779
107940.5 2.23445 0.077(4) 55683. 0.0771 0.0779
107951.0 2.23467 0.083(5) 48669. 0.0771 0.0779
107961.5 2.23489 0.081(4) 52617. 0.0771 0.0779
107972.5 2.23512 0.075(4) 58015. 0.0771 0.0778
107983.5 2.23534 0.079(4) 54886. 0.0771 0.0778
107994.5 2.23557 0.080(4) 55042. 0.0771 0.0778
108005.0 2.23579 0.096(5) 39662. 0.0771 0.0778
108015.5 2.23601 0.079(4) 54832. 0.0771 0.0778
108026.5 2.23623 0.080(4) 54040. 0.0771 0.0777
108037.5 2.23646 0.077(4) 55483. 0.0771 0.0777
108048.5 2.23669 0.075(4) 58333. 0.0771 0.0777
108059.0 2.23691 0.086(5) 45092. 0.0771 0.0777
108069.5 2.23712 0.077(4) 56093. 0.0771 0.0777
108080.5 2.23735 0.079(4) 54413. 0.0771 0.0777
108091.5 2.23758 0.079(4) 54704. 0.0771 0.0776
108102.5 2.23781 0.075(4) 57293. 0.0771 0.0776
108113.5 2.23803 0.074(4) 58783. 0.0771 0.0776
108124.0 2.23825 0.092(5) 41154. 0.0771 0.0776
108134.5 2.23847 0.077(4) 56750. 0.0771 0.0776
108145.5 2.23870 0.075(4) 58307. 0.0771 0.0776
108156.5 2.23892 0.073(4) 59289. 0.0771 0.0776
108167.5 2.23915 0.068(4) 63102. 0.0771 0.0775
108178.0 2.23937 0.075(4) 52298. 0.0771 0.0775
108188.5 2.23959 0.067(4) 66650. 0.0771 0.0775
108199.5 2.23981 0.076(4) 56278. 0.0771 0.0775
108210.5 2.24004 0.070(4) 63958. 0.0771 0.0775
108221.5 2.24027 0.084(4) 50327. 0.0771 0.0775
108232.5 2.24050 0.078(4) 56454. 0.0771 0.0775
108243.0 2.24072 0.075(4) 54236. 0.0771 0.0775
108253.5 2.24093 0.073(4) 57783. 0.0771 0.0775
108264.5 2.24116 0.076(4) 56408. 0.0771 0.0774
108275.5 2.24139 0.075(4) 57180. 0.0771 0.0774
108286.5 2.24162 0.067(4) 64961. 0.0771 0.0774
108297.0 2.24183 0.077(4) 53163. 0.0771 0.0774
108307.5 2.24205 0.081(4) 53590. 0.0771 0.0774
108318.5 2.24228 0.078(4) 55751. 0.0770 0.0774
108329.5 2.24251 0.076(4) 56818. 0.0770 0.0774
108340.5 2.24273 0.076(4) 56777. 0.0770 0.0774
108351.5 2.24296 0.072(4) 60630. 0.0770 0.0774
108362.0 2.24318 0.090(5) 43285. 0.0770 0.0774
108372.5 2.24340 0.084(5) 49381. 0.0770 0.0774
108383.5 2.24362 0.070(4) 63455. 0.0770 0.0773
108394.5 2.24385 0.074(4) 57840. 0.0770 0.0773
108405.5 2.24408 0.074(4) 59523. 0.0770 0.0773
108416.5 2.24431 0.080(4) 52536. 0.0770 0.0773
108427.0 2.24452 0.081(5) 47176. 0.0770 0.0773
108437.5 2.24474 0.075(4) 57347. 0.0770 0.0773
108448.5 2.24497 0.082(4) 51651. 0.0770 0.0773
108459.5 2.24520 0.077(4) 55921. 0.0770 0.0773
108470.5 2.24542 0.079(4) 52996. 0.0770 0.0773
108481.5 2.24565 0.080(4) 52738. 0.0770 0.0773
108492.5 2.24588 0.080(4) 52464. 0.0770 0.0773
108503.0 2.24610 0.093(5) 40334. 0.0770 0.0773
108513.5 2.24632 0.082(4) 50142. 0.0770 0.0773
108524.5 2.24654 0.068(4) 63689. 0.0770 0.0773
108535.5 2.24677 0.077(4) 54060. 0.0770 0.0773
108546.5 2.24700 0.075(4) 56964. 0.0770 0.0772
108557.5 2.24723 0.073(4) 58681. 0.0770 0.0772
108568.5 2.24745 0.090(5) 45624. 0.0770 0.0772
108579.0 2.24767 0.093(5) 41349. 0.0770 0.0772
108589.5 2.24789 0.079(4) 52654. 0.0770 0.0772
108600.5 2.24812 0.082(4) 50664. 0.0770 0.0772
108611.5 2.24834 0.082(4) 50854. 0.0770 0.0772
108622.5 2.24857 0.074(4) 56479. 0.0770 0.0772
108633.5 2.24880 0.078(4) 52304. 0.0770 0.0772
108644.5 2.24903 0.082(5) 49329. 0.0770 0.0772
108655.0 2.24924 0.086(5) 44314. 0.0770 0.0772
108665.5 2.24946 0.074(4) 57088. 0.0770 0.0772
108676.5 2.24969 0.073(4) 56651. 0.0770 0.0772
108687.5 2.24992 0.077(4) 54212. 0.0770 0.0772
108698.5 2.25014 0.081(4) 52333. 0.0770 0.0772
108709.5 2.25037 0.076(4) 55315. 0.0770 0.0772
108720.5 2.25060 0.068(4) 63535. 0.0770 0.0772
108731.5 2.25083 0.080(4) 52527. 0.0770 0.0771
108742.0 2.25105 0.090(5) 42168. 0.0770 0.0771
108752.5 2.25126 0.070(4) 60865. 0.0770 0.0771
108763.5 2.25149 0.075(4) 56058. 0.0770 0.0771
108774.5 2.25172 0.081(4) 51253. 0.0770 0.0771
108785.5 2.25195 0.077(4) 55105. 0.0770 0.0771
108796.5 2.25217 0.077(4) 55457. 0.0769 0.0771
108807.5 2.25240 0.080(4) 51211. 0.0769 0.0771
108818.5 2.25263 0.066(4) 65130. 0.0769 0.0771
108829.0 2.25285 0.084(5) 45777. 0.0769 0.0771
108839.5 2.25306 0.087(5) 47172. 0.0769 0.0771
108850.5 2.25329 0.076(4) 54508. 0.0769 0.0770
108861.5 2.25352 0.073(4) 56640. 0.0769 0.0770
108872.5 2.25375 0.074(4) 56711. 0.0769 0.0770
108883.5 2.25397 0.075(4) 56892. 0.0769 0.0770
108894.5 2.25420 0.073(4) 57221. 0.0769 0.0770
108905.5 2.25443 0.078(4) 54354. 0.0769 0.0770
108916.5 2.25466 0.086(5) 47490. 0.0769 0.0770
108927.0 2.25488 0.089(5) 42356. 0.0769 0.0770
108937.5 2.25509 0.074(4) 57095. 0.0769 0.0770
108948.5 2.25532 0.079(4) 51330. 0.0769 0.0770
108959.5 2.25555 0.079(4) 52527. 0.0769 0.0770
108970.5 2.25578 0.077(4) 54994. 0.0769 0.0769
108981.5 2.25600 0.075(4) 56175. 0.0769 0.0769
108992.5 2.25623 0.080(4) 52103. 0.0769 0.0769
109003.5 2.25646 0.081(4) 51996. 0.0769 0.0769
109014.5 2.25669 0.079(4) 53685. 0.0769 0.0769
109025.5 2.25691 0.081(4) 51640. 0.0769 0.0769
109036.0 2.25713 0.084(5) 44993. 0.0769 0.0769
109046.5 2.25735 0.079(4) 51484. 0.0769 0.0769
109057.5 2.25758 0.078(4) 53728. 0.0769 0.0769
109068.5 2.25780 0.078(4) 53115. 0.0769 0.0769
109079.5 2.25803 0.072(4) 60195. 0.0769 0.0769
109090.5 2.25826 0.073(4) 59008. 0.0769 0.0769
109101.5 2.25849 0.071(4) 60359. 0.0769 0.0769
109112.5 2.25872 0.076(4) 55885. 0.0769 0.0769
109123.5 2.25894 0.078(4) 55577. 0.0769 0.0769
109134.5 2.25917 0.077(4) 56207. 0.0769 0.0769
109145.0 2.25939 0.083(5) 46633. 0.0769 0.0769
109155.5 2.25961 0.075(4) 57840. 0.0769 0.0769
109166.5 2.25983 0.078(4) 56173. 0.0769 0.0769
109177.5 2.26006 0.070(4) 63195. 0.0769 0.0769
109188.5 2.26029 0.067(4) 65019. 0.0769 0.0769
109199.5 2.26052 0.076(4) 55884. 0.0769 0.0769
109210.5 2.26074 0.072(4) 59302. 0.0768 0.0768
109221.5 2.26097 0.074(4) 58507. 0.0768 0.0768
109232.5 2.26120 0.080(4) 54298. 0.0768 0.0768
109243.5 2.26143 0.071(4) 59917. 0.0768 0.0768
109254.5 2.26166 0.073(4) 58523. 0.0768 0.0768
109265.5 2.26188 0.072(4) 60895. 0.0768 0.0768
109276.5 2.26211 0.067(4) 66789. 0.0768 0.0768
109287.0 2.26233 0.083(5) 47227. 0.0768 0.0768
109297.5 2.26255 0.070(4) 61738. 0.0768 0.0768
109308.5 2.26277 0.070(4) 61758. 0.0768 0.0768
109319.5 2.26300 0.073(4) 59571. 0.0768 0.0768
109330.5 2.26323 0.075(4) 57588. 0.0768 0.0768
109341.5 2.26346 0.078(4) 54306. 0.0768 0.0768
109352.5 2.26368 0.077(4) 54798. 0.0768 0.0768
109363.5 2.26391 0.077(4) 55620. 0.0768 0.0768
109374.5 2.26414 0.076(4) 56545. 0.0768 0.0768
109385.5 2.26437 0.076(4) 55976. 0.0768 0.0768
109396.5 2.26459 0.077(4) 54322. 0.0768 0.0768
109407.5 2.26482 0.071(4) 58909. 0.0768 0.0768
109418.5 2.26505 0.075(4) 55376. 0.0768 0.0768
109429.5 2.26528 0.077(4) 54968. 0.0768 0.0768
109440.5 2.26551 0.077(4) 54596. 0.0768 0.0768
109451.5 2.26573 0.074(4) 57733. 0.0768 0.0768
109462.0 2.26595 0.074(4) 52527. 0.0768 0.0768
109472.5 2.26617 0.075(4) 54804. 0.0768 0.0768
109483.5 2.26640 0.079(4) 53246. 0.0768 0.0768
109494.5 2.26662 0.084(5) 48349. 0.0768 0.0768
109505.5 2.26685 0.076(4) 54523. 0.0768 0.0768
109516.5 2.26708 0.085(5) 48450. 0.0768 0.0768
109527.5 2.26731 0.077(4) 54081. 0.0768 0.0768
109538.5 2.26753 0.073(4) 56911. 0.0768 0.0768
109549.5 2.26776 0.082(4) 49808. 0.0768 0.0768
109560.5 2.26799 0.073(4) 57570. 0.0768 0.0768
109571.5 2.26822 0.072(4) 57130. 0.0768 0.0768
109582.5 2.26845 0.081(5) 48851. 0.0767 0.0767
109593.5 2.26867 0.071(4) 57645. 0.0767 0.0767
109604.5 2.26890 0.070(4) 57547. 0.0767 0.0767
109615.5 2.26913 0.069(4) 59796. 0.0767 0.0767
109626.5 2.26936 0.080(4) 50948. 0.0767 0.0767
109637.5 2.26958 0.075(4) 55056. 0.0767 0.0767
109648.5 2.26981 0.076(4) 53400. 0.0767 0.0767
109659.5 2.27004 0.082(4) 50051. 0.0767 0.0767
109670.5 2.27027 0.074(4) 58024. 0.0767 0.0767
109681.5 2.27049 0.079(4) 52087. 0.0767 0.0767
109692.5 2.27072 0.079(4) 52115. 0.0767 0.0767
109703.5 2.27095 0.075(4) 55128. 0.0767 0.0767
109714.5 2.27118 0.073(4) 57049. 0.0767 0.0767
109725.0 2.27140 0.082(5) 46531. 0.0767 0.0767
109735.5 2.27161 0.079(4) 52788. 0.0767 0.0767
109746.5 2.27184 0.081(4) 50853. 0.0767 0.0767
109757.5 2.27207 0.080(4) 52205. 0.0767 0.0767
109768.5 2.27230 0.082(5) 49261. 0.0767 0.0767
109779.5 2.27252 0.079(4) 53200. 0.0767 0.0767
109790.5 2.27275 0.079(4) 52572. 0.0767 0.0767
109801.5 2.27298 0.070(4) 61674. 0.0767 0.0767
109812.5 2.27321 0.077(4) 53584. 0.0767 0.0767
109823.5 2.27343 0.075(4) 55609. 0.0767 0.0767
109834.5 2.27366 0.070(4) 60689. 0.0767 0.0767
109845.5 2.27389 0.074(4) 55742. 0.0767 0.0767
109856.5 2.27412 0.079(4) 52514. 0.0767 0.0767
109867.5 2.27435 0.081(4) 50109. 0.0767 0.0767
109878.5 2.27457 0.077(4) 53163. 0.0767 0.0767
109889.5 2.27480 0.072(4) 59016. 0.0767 0.0767
109900.5 2.27503 0.079(4) 51535. 0.0767 0.0767
109911.5 2.27526 0.084(5) 47369. 0.0766 0.0766
109922.5 2.27548 0.078(4) 51681. 0.0766 0.0766
109933.5 2.27571 0.081(4) 51151. 0.0766 0.0766
109944.5 2.27594 0.084(5) 49281. 0.0766 0.0766
109955.5 2.27617 0.083(4) 49870. 0.0766 0.0766
109966.5 2.27639 0.077(4) 53806. 0.0766 0.0766
109977.5 2.27662 0.076(4) 53160. 0.0766 0.0766
109988.5 2.27685 0.071(4) 58637. 0.0766 0.0766
109999.5 2.27708 0.077(4) 52821. 0.0766 0.0766
110010.5 2.27731 0.084(5) 48057. 0.0766 0.0766
110021.5 2.27753 0.084(5) 47479. 0.0766 0.0766
110032.5 2.27776 0.078(4) 52104. 0.0766 0.0766
110043.5 2.27799 0.078(4) 52579. 0.0766 0.0766
110054.5 2.27822 0.080(4) 49621. 0.0766 0.0766
110065.5 2.27844 0.080(5) 49208. 0.0766 0.0766
110076.5 2.27867 0.082(5) 48764. 0.0766 0.0766
110087.5 2.27890 0.081(4) 49532. 0.0766 0.0766
110098.5 2.27913 0.082(5) 48935. 0.0766 0.0766
110109.5 2.27936 0.082(5) 48170. 0.0766 0.0766
110120.5 2.27958 0.076(4) 53684. 0.0766 0.0766
110131.5 2.27981 0.082(5) 47585. 0.0766 0.0766
110142.5 2.28004 0.076(4) 52325. 0.0766 0.0766
110153.5 2.28027 0.076(4) 53271. 0.0766 0.0766
110164.5 2.28049 0.074(4) 54623. 0.0766 0.0766
110175.5 2.28072 0.075(4) 52862. 0.0766 0.0766
110186.5 2.28095 0.079(4) 49736. 0.0766 0.0766
110197.5 2.28118 0.079(4) 50472. 0.0766 0.0766
110208.5 2.28140 0.081(5) 47529. 0.0766 0.0766
110219.5 2.28163 0.080(5) 49255. 0.0766 0.0766
110230.5 2.28186 0.085(5) 45883. 0.0765 0.0765
110241.5 2.28209 0.084(5) 46668. 0.0765 0.0765
110252.5 2.28232 0.084(5) 46075. 0.0765 0.0765
110263.5 2.28254 0.078(4) 49846. 0.0765 0.0765
110274.5 2.28277 0.078(4) 50157. 0.0765 0.0765
110286.0 2.28301 0.077(4) 54624. 0.0765 0.0765
110297.5 2.28325 0.081(5) 48732. 0.0765 0.0765
110308.5 2.28347 0.078(4) 50539. 0.0765 0.0765
110319.5 2.28370 0.080(4) 50288. 0.0765 0.0765
110330.5 2.28393 0.085(5) 46307. 0.0765 0.0765
110341.5 2.28416 0.081(5) 49094. 0.0765 0.0765
110352.5 2.28439 0.084(5) 46644. 0.0765 0.0765
110363.5 2.28461 0.084(5) 46382. 0.0765 0.0765
110374.5 2.28484 0.074(4) 54399. 0.0765 0.0765
110385.5 2.28507 0.076(4) 52183. 0.0765 0.0765
110396.5 2.28530 0.077(4) 53232. 0.0765 0.0765
110407.5 2.28552 0.085(5) 47160. 0.0765 0.0765
110418.5 2.28575 0.078(4) 53725. 0.0765 0.0765
110429.5 2.28598 0.081(4) 50044. 0.0765 0.0765
110440.5 2.28621 0.082(5) 49300. 0.0765 0.0765
110451.5 2.28644 0.080(4) 50382. 0.0765 0.0765
110462.5 2.28666 0.077(4) 53955. 0.0765 0.0765
110473.5 2.28689 0.073(4) 56930. 0.0765 0.0765
110484.5 2.28712 0.078(4) 52233. 0.0765 0.0765
110495.5 2.28735 0.075(4) 54484. 0.0765 0.0765
110506.5 2.28757 0.076(4) 52232. 0.0765 0.0765
110517.5 2.28780 0.069(4) 60317. 0.0764 0.0764
110528.5 2.28803 0.075(4) 53977. 0.0764 0.0764
110539.5 2.28826 0.078(4) 51361. 0.0764 0.0764
110551.0 2.28850 0.077(4) 55823. 0.0764 0.0764
110562.5 2.28873 0.079(4) 50835. 0.0764 0.0764
110573.5 2.28896 0.082(5) 47941. 0.0764 0.0764
110584.5 2.28919 0.075(4) 52914. 0.0764 0.0764
110595.5 2.28942 0.071(4) 56702. 0.0764 0.0764
110606.5 2.28964 0.074(4) 54291. 0.0764 0.0764
110617.5 2.28987 0.073(4) 54521. 0.0764 0.0764
110628.5 2.29010 0.079(5) 49230. 0.0764 0.0764
110639.5 2.29033 0.084(5) 46478. 0.0764 0.0764
110650.5 2.29055 0.078(4) 49587. 0.0764 0.0764
110661.5 2.29078 0.073(4) 53390. 0.0764 0.0764
110672.5 2.29101 0.079(5) 48004. 0.0764 0.0764
110683.5 2.29124 0.075(4) 51763. 0.0764 0.0764
110694.5 2.29147 0.076(4) 51578. 0.0764 0.0764
110705.5 2.29169 0.082(5) 47095. 0.0764 0.0764
110716.5 2.29192 0.081(5) 48121. 0.0764 0.0764
110728.0 2.29216 0.066(4) 67032. 0.0764 0.0764
110739.5 2.29240 0.070(4) 57536. 0.0764 0.0764
110750.5 2.29262 0.077(4) 51464. 0.0764 0.0764
110761.5 2.29285 0.075(4) 53222. 0.0764 0.0764
110772.5 2.29308 0.079(5) 48870. 0.0764 0.0764
110783.5 2.29331 0.079(4) 50235. 0.0764 0.0764
110794.5 2.29354 0.081(5) 49219. 0.0763 0.0763
110805.5 2.29376 0.082(5) 47347. 0.0763 0.0763
110816.5 2.29399 0.076(4) 51240. 0.0763 0.0763
110827.5 2.29422 0.075(4) 52370. 0.0763 0.0763
110838.5 2.29445 0.074(4) 53515. 0.0763 0.0763
110849.5 2.29467 0.077(4) 51756. 0.0763 0.0763
110860.5 2.29490 0.081(5) 49107. 0.0763 0.0763
110872.0 2.29514 0.079(4) 52634. 0.0763 0.0763
110883.5 2.29538 0.072(4) 56328. 0.0763 0.0763
110894.5 2.29561 0.075(4) 52612. 0.0763 0.0763
110905.5 2.29583 0.072(4) 55954. 0.0763 0.0763
110916.5 2.29606 0.081(5) 47628. 0.0763 0.0763
110927.5 2.29629 0.079(4) 50179. 0.0763 0.0763
110938.5 2.29652 0.077(4) 50668. 0.0763 0.0763
110949.5 2.29674 0.073(4) 54590. 0.0763 0.0763
110960.5 2.29697 0.078(4) 50867. 0.0763 0.0763
110971.5 2.29720 0.077(4) 50872. 0.0763 0.0763
110983.0 2.29744 0.064(4) 67634. 0.0763 0.0763
110994.5 2.29768 0.078(4) 49816. 0.0763 0.0763
111005.5 2.29790 0.064(4) 65777. 0.0763 0.0763
111016.5 2.29813 0.066(4) 60067. 0.0763 0.0763
111027.5 2.29836 0.074(4) 52415. 0.0763 0.0763
111038.5 2.29859 0.078(4) 49815. 0.0763 0.0763
111049.5 2.29881 0.073(4) 54201. 0.0762 0.0762
111060.5 2.29904 0.069(4) 57349. 0.0762 0.0762
111071.5 2.29927 0.073(4) 53867. 0.0762 0.0762
111082.5 2.29950 0.081(5) 48248. 0.0762 0.0762
111094.0 2.29974 0.081(4) 50544. 0.0762 0.0762
111105.5 2.29997 0.080(5) 48037. 0.0762 0.0762
111116.5 2.30020 0.076(4) 51582. 0.0762 0.0762
111127.5 2.30043 0.073(4) 52389. 0.0762 0.0762
111138.5 2.30066 0.072(4) 53800. 0.0762 0.0762
111149.5 2.30089 0.065(4) 62465. 0.0762 0.0762
111160.5 2.30111 0.078(5) 48806. 0.0762 0.0762
111171.5 2.30134 0.082(5) 46604. 0.0762 0.0762
111182.5 2.30157 0.079(5) 48184. 0.0762 0.0762
111194.0 2.30181 0.075(4) 54911. 0.0762 0.0762
111205.5 2.30204 0.081(5) 46276. 0.0762 0.0762
111216.5 2.30227 0.080(5) 47447. 0.0762 0.0762
111227.5 2.30250 0.079(5) 48767. 0.0762 0.0762
111238.5 2.30273 0.079(5) 48417. 0.0762 0.0762
111249.5 2.30296 0.076(4) 49556. 0.0762 0.0762
111260.5 2.30318 0.080(5) 47028. 0.0762 0.0762
111271.5 2.30341 0.078(5) 49146. 0.0762 0.0762
111283.0 2.30365 0.071(4) 58110. 0.0762 0.0762
111294.5 2.30389 0.082(5) 46053. 0.0762 0.0762
111305.5 2.30411 0.078(5) 48987. 0.0761 0.0761
111316.5 2.30434 0.073(4) 52824. 0.0761 0.0761
111327.5 2.30457 0.077(5) 49068. 0.0761 0.0761
111338.5 2.30480 0.072(4) 53143. 0.0761 0.0761
111349.5 2.30503 0.073(4) 51864. 0.0761 0.0761
111360.5 2.30525 0.082(5) 45743. 0.0761 0.0761
111372.0 2.30549 0.076(4) 53626. 0.0761 0.0761
111383.5 2.30573 0.084(5) 44943. 0.0761 0.0761
111394.5 2.30596 0.082(5) 45705. 0.0761 0.0761
111405.5 2.30618 0.075(4) 51975. 0.0761 0.0761
111416.5 2.30641 0.076(4) 50729. 0.0761 0.0761
111427.5 2.30664 0.076(4) 51448. 0.0761 0.0761
111438.5 2.30687 0.082(5) 45825. 0.0761 0.0761
111450.0 2.30711 0.082(5) 49195. 0.0761 0.0761
111461.5 2.30734 0.080(5) 46902. 0.0761 0.0761
111472.5 2.30757 0.076(4) 49399. 0.0761 0.0761
111483.5 2.30780 0.078(5) 47181. 0.0761 0.0761
111494.5 2.30803 0.077(5) 48714. 0.0761 0.0761
111505.5 2.30825 0.079(5) 46715. 0.0761 0.0761
111517.0 2.30849 0.071(4) 56235. 0.0761 0.0761
111528.5 2.30873 0.083(5) 43426. 0.0761 0.0761
111539.5 2.30896 0.083(5) 43307. 0.0760 0.0760
111550.5 2.30919 0.075(4) 50132. 0.0760 0.0760
111561.5 2.30941 0.076(5) 48724. 0.0760 0.0760
111572.5 2.30964 0.076(5) 48727. 0.0760 0.0760
111583.5 2.30987 0.087(5) 40704. 0.0760 0.0760
111595.0 2.31011 0.071(4) 55825. 0.0760 0.0760
111606.5 2.31035 0.081(5) 44869. 0.0760 0.0760
111617.5 2.31057 0.084(5) 42929. 0.0760 0.0760
111628.5 2.31080 0.082(5) 44383. 0.0760 0.0760
111639.5 2.31103 0.078(5) 46284. 0.0760 0.0760
111650.5 2.31126 0.074(4) 50061. 0.0760 0.0760
111662.0 2.31149 0.069(4) 57451. 0.0760 0.0760
111673.5 2.31173 0.075(5) 48862. 0.0760 0.0760
111684.5 2.31196 0.077(5) 47444. 0.0760 0.0760
111695.5 2.31219 0.080(5) 45208. 0.0760 0.0760
111706.5 2.31242 0.083(5) 43849. 0.0760 0.0760
111717.5 2.31264 0.079(5) 46835. 0.0760 0.0760
111729.0 2.31288 0.075(4) 52392. 0.0760 0.0760
111740.5 2.31312 0.075(4) 49925. 0.0760 0.0760
111751.5 2.31335 0.069(4) 55704. 0.0760 0.0760
111762.5 2.31358 0.075(4) 49674. 0.0760 0.0760
111773.5 2.31380 0.079(5) 46480. 0.0759 0.0759
111784.5 2.31403 0.077(5) 49179. 0.0759 0.0759
111796.0 2.31427 0.069(4) 60573. 0.0759 0.0759
111807.5 2.31451 0.078(4) 49580. 0.0759 0.0759
111818.5 2.31473 0.076(4) 49730. 0.0759 0.0759
111829.5 2.31496 0.071(4) 53166. 0.0759 0.0759
111840.5 2.31519 0.074(4) 50654. 0.0759 0.0759
111852.0 2.31543 0.066(4) 63546. 0.0759 0.0759
111863.5 2.31567 0.072(4) 52640. 0.0759 0.0759
111874.5 2.31589 0.065(4) 59936. 0.0759 0.0759
111885.5 2.31612 0.074(4) 51107. 0.0759 0.0759
111896.5 2.31635 0.086(5) 43510. 0.0759 0.0759
111907.5 2.31658 0.076(4) 49994. 0.0759 0.0759
111919.0 2.31682 0.066(4) 60360. 0.0759 0.0759
111930.5 2.31705 0.075(5) 49257. 0.0759 0.0759
111941.5 2.31728 0.077(5) 48913. 0.0759 0.0759
111952.5 2.31751 0.077(5) 48988. 0.0759 0.0759
111963.5 2.31774 0.071(4) 52635. 0.0759 0.0759
111975.0 2.31797 0.069(4) 57362. 0.0759 0.0759
111986.5 2.31821 0.083(5) 43828. 0.0759 0.0759
111997.5 2.31844 0.084(5) 44157. 0.0758 0.0758
112008.5 2.31867 0.077(5) 47390. 0.0758 0.0758
112019.5 2.31890 0.075(5) 48181. 0.0758 0.0758
112031.0 2.31913 0.070(4) 57131. 0.0758 0.0758
112042.5 2.31937 0.077(5) 47337. 0.0758 0.0758
112053.5 2.31960 0.074(4) 49792. 0.0758 0.0758
112064.5 2.31983 0.076(5) 47582. 0.0758 0.0758
112075.5 2.32006 0.077(5) 46814. 0.0758 0.0758
112087.0 2.32029 0.070(4) 57386. 0.0758 0.0758
112098.5 2.32053 0.072(4) 50921. 0.0758 0.0758
112109.5 2.32076 0.067(4) 56000. 0.0758 0.0758
112120.5 2.32099 0.073(4) 50246. 0.0758 0.0758
112132.0 2.32122 0.064(4) 62705. 0.0758 0.0758
112143.5 2.32146 0.078(5) 47214. 0.0758 0.0758
112154.5 2.32169 0.084(5) 42653. 0.0758 0.0758
112165.5 2.32192 0.078(5) 45511. 0.0758 0.0758
112176.5 2.32215 0.073(4) 49727. 0.0758 0.0758
112188.0 2.32238 0.070(4) 56051. 0.0758 0.0758
112199.5 2.32262 0.075(5) 48758. 0.0758 0.0758
112210.5 2.32285 0.079(5) 46144. 0.0758 0.0758
112221.5 2.32308 0.083(5) 42043. 0.0757 0.0757
112233.0 2.32332 0.071(4) 55840. 0.0757 0.0757
112244.5 2.32355 0.073(4) 50710. 0.0757 0.0757
112255.5 2.32378 0.076(5) 46785. 0.0757 0.0757
112266.5 2.32401 0.075(5) 47634. 0.0757 0.0757
112277.5 2.32424 0.078(5) 45231. 0.0757 0.0757
112289.0 2.32447 0.070(4) 55777. 0.0757 0.0757
112300.5 2.32471 0.081(5) 42467. 0.0757 0.0757
112311.5 2.32494 0.078(5) 44520. 0.0757 0.0757
112322.5 2.32517 0.078(5) 45201. 0.0757 0.0757
112334.0 2.32541 0.069(4) 56077. 0.0757 0.0757
112345.5 2.32564 0.085(5) 39597. 0.0757 0.0757
112356.5 2.32587 0.075(5) 48113. 0.0757 0.0757
112367.5 2.32610 0.088(5) 38327. 0.0757 0.0757
112379.0 2.32634 0.077(4) 49605. 0.0757 0.0757
112390.5 2.32658 0.084(5) 41187. 0.0757 0.0757
112401.5 2.32680 0.070(4) 51592. 0.0757 0.0757
112412.5 2.32703 0.075(5) 47829. 0.0757 0.0757
112423.5 2.32726 0.084(5) 41639. 0.0757 0.0757
112435.0 2.32750 0.074(4) 52307. 0.0756 0.0756
112446.5 2.32774 0.077(5) 45952. 0.0756 0.0756
112457.5 2.32796 0.078(5) 45063. 0.0756 0.0756
112468.5 2.32819 0.082(5) 42247. 0.0756 0.0756
112480.0 2.32843 0.072(4) 53796. 0.0756 0.0756
112491.5 2.32867 0.081(5) 42722. 0.0756 0.0756
112502.5 2.32889 0.077(5) 45820. 0.0756 0.0756
112513.5 2.32912 0.071(4) 53225. 0.0756 0.0756
112525.0 2.32936 0.078(5) 49304. 0.0756 0.0756
112536.5 2.32960 0.078(5) 45524. 0.0756 0.0756
112547.5 2.32983 0.081(5) 43650. 0.0756 0.0756
112558.5 2.33005 0.078(5) 46271. 0.0756 0.0756
112570.0 2.33029 0.072(4) 52859. 0.0756 0.0756
112581.5 2.33053 0.075(5) 46827. 0.0756 0.0756
112592.5 2.33076 0.079(5) 45273. 0.0756 0.0756
112603.5 2.33099 0.088(5) 39168. 0.0756 0.0756
112615.0 2.33122 0.079(5) 48057. 0.0756 0.0756
112626.5 2.33146 0.076(5) 47186. 0.0756 0.0756
112637.5 2.33169 0.080(5) 43048. 0.0756 0.0756
112649.0 2.33193 0.077(4) 49921. 0.0755 0.0755
112660.5 2.33217 0.082(5) 42863. 0.0755 0.0755
112671.5 2.33239 0.078(5) 44761. 0.0755 0.0755
112682.5 2.33262 0.076(5) 46356. 0.0755 0.0755
112694.0 2.33286 0.075(4) 49403. 0.0755 0.0755
112705.5 2.33310 0.073(5) 46405. 0.0755 0.0755
112716.5 2.33332 0.076(5) 44199. 0.0755 0.0755
112727.5 2.33355 0.076(5) 46038. 0.0755 0.0755
112739.0 2.33379 0.065(4) 59087. 0.0755 0.0755
112750.5 2.33403 0.072(5) 47722. 0.0755 0.0755
112761.5 2.33426 0.079(5) 42401. 0.0755 0.0755
112773.0 2.33449 0.072(4) 51564. 0.0755 0.0755
112784.5 2.33473 0.074(5) 47495. 0.0755 0.0755
112795.5 2.33496 0.083(5) 40746. 0.0755 0.0755
112806.5 2.33519 0.072(5) 48011. 0.0755 0.0755
112818.0 2.33543 0.067(4) 55283. 0.0755 0.0755
112829.5 2.33566 0.083(5) 40048. 0.0755 0.0755
112840.5 2.33589 0.082(5) 40494. 0.0755 0.0755
112851.5 2.33612 0.081(5) 42042. 0.0755 0.0755
112863.0 2.33636 0.075(4) 49852. 0.0754 0.0754
112874.5 2.33660 0.088(5) 37519. 0.0754 0.0754
112885.5 2.33682 0.084(5) 39358. 0.0754 0.0754
112897.0 2.33706 0.068(4) 54208. 0.0754 0.0754
112908.5 2.33730 0.082(5) 40491. 0.0754 0.0754
112919.5 2.33753 0.080(5) 42561. 0.0754 0.0754
112931.0 2.33777 0.070(4) 51828. 0.0754 0.0754
112942.5 2.33800 0.076(5) 44564. 0.0754 0.0754
112953.5 2.33823 0.071(5) 49044. 0.0754 0.0754
112964.5 2.33846 0.075(5) 44845. 0.0754 0.0754
112976.0 2.33870 0.068(4) 54311. 0.0754 0.0754
112987.5 2.33893 0.076(5) 44326. 0.0754 0.0754
112998.5 2.33916 0.068(4) 50813. 0.0754 0.0754
113010.0 2.33940 0.060(4) 63301. 0.0754 0.0754
113021.5 2.33964 0.066(4) 53043. 0.0754 0.0754
113032.5 2.33987 0.070(4) 49913. 0.0754 0.0754
113043.5 2.34009 0.078(5) 44666. 0.0754 0.0754
113055.0 2.34033 0.070(4) 54201. 0.0754 0.0754
113066.5 2.34057 0.084(5) 40132. 0.0753 0.0753
113077.5 2.34080 0.080(5) 42694. 0.0753 0.0753
113089.0 2.34104 0.074(4) 50590. 0.0753 0.0753
113100.5 2.34127 0.084(5) 40179. 0.0753 0.0753
113111.5 2.34150 0.081(5) 41681. 0.0753 0.0753
113123.0 2.34174 0.074(5) 48972. 0.0753 0.0753
113134.5 2.34198 0.087(5) 37434. 0.0753 0.0753
113145.5 2.34221 0.084(5) 39930. 0.0753 0.0753
113157.0 2.34244 0.071(4) 51568. 0.0753 0.0753
113168.5 2.34268 0.072(5) 47785. 0.0753 0.0753
113179.5 2.34291 0.073(5) 47614. 0.0753 0.0753
113191.0 2.34315 0.075(5) 47790. 0.0753 0.0753
113202.5 2.34339 0.073(5) 46633. 0.0753 0.0753
113213.5 2.34361 0.071(5) 47416. 0.0753 0.0753
113225.0 2.34385 0.068(4) 52559. 0.0753 0.0753
113236.5 2.34409 0.073(5) 44557. 0.0753 0.0753
113247.5 2.34432 0.072(5) 45250. 0.0753 0.0753
113258.5 2.34455 0.076(5) 42017. 0.0753 0.0753
113270.0 2.34478 0.070(4) 49863. 0.0752 0.0752
113281.5 2.34502 0.080(5) 40504. 0.0752 0.0752
113292.5 2.34525 0.087(5) 36340. 0.0752 0.0752
113304.0 2.34549 0.069(4) 51508. 0.0752 0.0752
113315.5 2.34573 0.072(5) 45947. 0.0752 0.0752
113326.5 2.34595 0.076(5) 42569. 0.0752 0.0752
113338.0 2.34619 0.074(5) 47496. 0.0752 0.0752
113349.5 2.34643 0.084(5) 39048. 0.0752 0.0752
113360.5 2.34666 0.081(5) 39945. 0.0752 0.0752
113372.0 2.34689 0.078(5) 43038. 0.0752 0.0752
113383.5 2.34713 0.079(5) 40518. 0.0752 0.0752
113394.5 2.34736 0.077(5) 42011. 0.0752 0.0752
113406.0 2.34760 0.078(5) 44820. 0.0752 0.0752
113417.5 2.34784 0.078(5) 41851. 0.0752 0.0752
113429.0 2.34807 0.071(4) 49596. 0.0752 0.0752
113440.5 2.34831 0.076(5) 42106. 0.0752 0.0752
113451.5 2.34854 0.070(5) 47176. 0.0752 0.0752
113463.0 2.34878 0.075(5) 46457. 0.0751 0.0751
113474.5 2.34902 0.076(5) 43468. 0.0751 0.0751
113485.5 2.34924 0.079(5) 40664. 0.0751 0.0751
113497.0 2.34948 0.064(4) 56510. 0.0751 0.0751
113508.5 2.34972 0.077(5) 41419. 0.0751 0.0751
113519.5 2.34995 0.078(5) 42671. 0.0751 0.0751
113531.0 2.35019 0.074(5) 47719. 0.0751 0.0751
113542.5 2.35042 0.075(5) 43633. 0.0751 0.0751
113553.5 2.35065 0.074(5) 44976. 0.0751 0.0751
113565.0 2.35089 0.071(4) 49548. 0.0751 0.0751
113576.5 2.35113 0.067(4) 50172. 0.0751 0.0751
113587.5 2.35136 0.066(4) 51024. 0.0751 0.0751
113599.0 2.35159 0.072(5) 49066. 0.0751 0.0751
113610.5 2.35183 0.071(5) 45927. 0.0751 0.0751
113622.0 2.35207 0.067(4) 53315. 0.0751 0.0751
113633.5 2.35231 0.075(5) 44246. 0.0751 0.0751
113644.5 2.35254 0.075(5) 42304. 0.0751 0.0751
113656.0 2.35277 0.070(4) 49682. 0.0751 0.0751
113667.5 2.35301 0.083(5) 39054. 0.0750 0.0750
113678.5 2.35324 0.077(5) 43313. 0.0750 0.0750
113690.0 2.35348 0.060(4) 58429. 0.0750 0.0750
113701.5 2.35372 0.074(5) 41268. 0.0750 0.0750
113712.5 2.35394 0.075(5) 42807. 0.0750 0.0750
113724.0 2.35418 0.072(5) 47817. 0.0750 0.0750
113735.5 2.35442 0.076(5) 42944. 0.0750 0.0750
113747.0 2.35466 0.077(5) 44269. 0.0750 0.0750
113758.5 2.35490 0.074(5) 44436. 0.0750 0.0750
113769.5 2.35512 0.079(5) 40110. 0.0750 0.0750
113781.0 2.35536 0.064(4) 55447. 0.0750 0.0750
113792.5 2.35560 0.071(5) 45608. 0.0750 0.0750
113803.5 2.35583 0.076(5) 41679. 0.0750 0.0750
113815.0 2.35607 0.068(4) 51056. 0.0750 0.0750
113826.5 2.35630 0.073(5) 43983. 0.0750 0.0750
113838.0 2.35654 0.064(4) 55565. 0.0750 0.0750
113849.5 2.35678 0.066(4) 51497. 0.0750 0.0750
113860.5 2.35701 0.076(5) 42397. 0.0750 0.0750
113872.0 2.35725 0.076(5) 45744. 0.0749 0.0749
113883.5 2.35748 0.082(5) 40739. 0.0749 0.0749
113895.0 2.35772 0.070(4) 51110. 0.0749 0.0749
113906.5 2.35796 0.068(5) 48028. 0.0749 0.0749
113917.5 2.35819 0.073(5) 44137. 0.0749 0.0749
113929.0 2.35843 0.067(4) 53539. 0.0749 0.0749
113940.5 2.35866 0.074(5) 44250. 0.0749 0.0749
113951.5 2.35889 0.070(5) 45782. 0.0749 0.0749
113963.0 2.35913 0.063(4) 55585. 0.0749 0.0749
113974.5 2.35937 0.070(5) 47403. 0.0749 0.0749
113986.0 2.35961 0.061(4) 57747. 0.0749 0.0749
113997.5 2.35984 0.077(5) 40591. 0.0749 0.0749
114008.5 2.36007 0.083(5) 37299. 0.0749 0.0749
114020.0 2.36031 0.072(5) 47230. 0.0749 0.0749
114031.5 2.36055 0.075(5) 41619. 0.0749 0.0749
114043.0 2.36079 0.067(4) 52445. 0.0749 0.0749
114054.5 2.36102 0.080(5) 38710. 0.0749 0.0749
114065.5 2.36125 0.077(5) 40967. 0.0748 0.0748
114077.0 2.36149 0.070(5) 48711. 0.0748 0.0748
114088.5 2.36173 0.080(5) 38498. 0.0748 0.0748
114100.0 2.36197 0.077(5) 42917. 0.0748 0.0748
114111.5 2.36220 0.079(5) 39008. 0.0748 0.0748
114123.0 2.36244 0.066(4) 51531. 0.0748 0.0748
114134.5 2.36268 0.078(5) 38924. 0.0748 0.0748
114145.5 2.36291 0.087(5) 34344. 0.0748 0.0748
114157.0 2.36315 0.078(5) 42980. 0.0748 0.0748
114168.5 2.36338 0.083(5) 36521. 0.0748 0.0748
114180.0 2.36362 0.072(5) 46785. 0.0748 0.0748
114191.5 2.36386 0.073(5) 43452. 0.0748 0.0748
114202.5 2.36409 0.080(5) 38346. 0.0748 0.0748
114214.0 2.36433 0.069(5) 48754. 0.0748 0.0748
114225.5 2.36456 0.075(5) 41242. 0.0748 0.0748
114237.0 2.36480 0.069(5) 49307. 0.0748 0.0748
114248.5 2.36504 0.079(5) 38588. 0.0748 0.0748
114260.0 2.36528 0.074(5) 46637. 0.0748 0.0748
114271.5 2.36552 0.076(5) 41366. 0.0747 0.0747
114282.5 2.36574 0.073(5) 41913. 0.0747 0.0747
114294.0 2.36598 0.076(5) 44006. 0.0747 0.0747
114305.5 2.36622 0.089(5) 33368. 0.0747 0.0747
114317.0 2.36646 0.078(5) 42434. 0.0747 0.0747
114328.5 2.36670 0.081(5) 37614. 0.0747 0.0747
114340.0 2.36693 0.077(5) 43634. 0.0747 0.0747
114351.5 2.36717 0.088(5) 34330. 0.0747 0.0747
114362.5 2.36740 0.078(5) 39893. 0.0747 0.0747
114374.0 2.36764 0.072(5) 46417. 0.0747 0.0747
114385.5 2.36788 0.066(5) 48274. 0.0747 0.0747
114397.0 2.36811 0.058(4) 59714. 0.0747 0.0747
114408.5 2.36835 0.077(5) 38205. 0.0747 0.0747
114420.0 2.36859 0.069(5) 48144. 0.0747 0.0747
114431.5 2.36883 0.079(5) 38343. 0.0747 0.0747
114443.0 2.36907 0.070(5) 48972. 0.0747 0.0747
114454.5 2.36930 0.076(5) 42377. 0.0747 0.0747
114465.5 2.36953 0.082(5) 37092. 0.0746 0.0746
114477.0 2.36977 0.068(4) 49845. 0.0746 0.0746
114488.5 2.37001 0.073(5) 42483. 0.0746 0.0746
114500.0 2.37025 0.074(5) 44289. 0.0746 0.0746
114511.5 2.37048 0.076(5) 40478. 0.0746 0.0746
114523.0 2.37072 0.073(5) 45498. 0.0746 0.0746
114534.5 2.37096 0.075(5) 41244. 0.0746 0.0746
114546.0 2.37120 0.073(5) 44310. 0.0746 0.0746
114557.5 2.37144 0.081(5) 36942. 0.0746 0.0746
114568.5 2.37166 0.078(5) 39618. 0.0746 0.0746
114580.0 2.37190 0.072(5) 45596. 0.0746 0.0746
114591.5 2.37214 0.081(5) 37226. 0.0746 0.0746
114603.0 2.37238 0.077(5) 41131. 0.0746 0.0746
114614.5 2.37262 0.080(5) 37613. 0.0746 0.0746
114626.0 2.37285 0.079(5) 40760. 0.0746 0.0746
114637.5 2.37309 0.084(5) 36414. 0.0746 0.0746
114649.0 2.37333 0.084(5) 38349. 0.0746 0.0746
114660.5 2.37357 0.089(6) 32959. 0.0746 0.0746
114672.0 2.37381 0.068(4) 50665. 0.0745 0.0745
114683.5 2.37405 0.073(5) 41475. 0.0745 0.0745
114695.0 2.37428 0.064(4) 51640. 0.0745 0.0745
114706.5 2.37452 0.076(5) 39689. 0.0745 0.0745
114718.0 2.37476 0.074(5) 42974. 0.0745 0.0745
114729.5 2.37500 0.077(5) 38522. 0.0745 0.0745
114740.5 2.37523 0.076(5) 38991. 0.0745 0.0745
114752.0 2.37546 0.069(5) 46244. 0.0745 0.0745
114763.5 2.37570 0.073(5) 40270. 0.0745 0.0745
114775.0 2.37594 0.073(5) 44169. 0.0745 0.0745
114786.5 2.37618 0.082(5) 34946. 0.0745 0.0745
114798.0 2.37642 0.075(5) 42178. 0.0745 0.0745
114809.5 2.37665 0.081(5) 36516. 0.0745 0.0745
114821.0 2.37689 0.071(5) 45330. 0.0745 0.0745
114832.5 2.37713 0.079(5) 37268. 0.0745 0.0745
114844.0 2.37737 0.074(5) 42902. 0.0745 0.0745
114855.5 2.37761 0.078(5) 37662. 0.0745 0.0745
114867.0 2.37784 0.078(5) 41699. 0.0745 0.0745
114878.5 2.37808 0.086(5) 33834. 0.0744 0.0744
114890.0 2.37832 0.070(5) 46497. 0.0744 0.0744
114901.5 2.37856 0.083(5) 35465. 0.0744 0.0744
114913.0 2.37880 0.072(5) 45010. 0.0744 0.0744
114924.5 2.37903 0.074(5) 41154. 0.0744 0.0744
114936.0 2.37927 0.063(4) 52301. 0.0744 0.0744
114947.5 2.37951 0.073(5) 39059. 0.0744 0.0744
114959.0 2.37975 0.066(5) 49280. 0.0744 0.0744
114970.5 2.37999 0.074(5) 41195. 0.0744 0.0744
114982.0 2.38022 0.070(5) 45978. 0.0744 0.0744
114993.5 2.38046 0.076(5) 39086. 0.0744 0.0744
115005.0 2.38070 0.068(5) 47196. 0.0744 0.0744
115016.5 2.38094 0.074(5) 39510. 0.0744 0.0744
115028.0 2.38118 0.071(5) 45980. 0.0744 0.0744
115039.5 2.38142 0.083(5) 35286. 0.0744 0.0744
115051.0 2.38165 0.079(5) 41343. 0.0744 0.0744
115062.5 2.38189 0.082(5) 36575. 0.0744 0.0744
115074.0 2.38213 0.064(4) 53472. 0.0744 0.0744
115085.5 2.38237 0.071(5) 42453. 0.0743 0.0743
115097.0 2.38261 0.065(4) 51648. 0.0743 0.0743
115108.5 2.38284 0.071(5) 42510. 0.0743 0.0743
115120.0 2.38308 0.064(4) 50033. 0.0743 0.0743
115131.5 2.38332 0.069(5) 43714. 0.0743 0.0743
115143.0 2.38356 0.068(5) 46325. 0.0743 0.0743
115154.5 2.38380 0.073(5) 39439. 0.0743 0.0743
115166.0 2.38403 0.072(5) 43544. 0.0743 0.0743
115177.5 2.38427 0.082(5) 34483. 0.0743 0.0743
115189.0 2.38451 0.074(5) 40634. 0.0743 0.0743
115200.5 2.38475 0.080(5) 34203. 0.0743 0.0743
115212.0 2.38499 0.069(5) 44125. 0.0743 0.0743
115223.5 2.38522 0.084(6) 32256. 0.0743 0.0743
115235.0 2.38546 0.072(5) 41529. 0.0743 0.0743
115246.5 2.38570 0.072(5) 37571. 0.0743 0.0743
115258.0 2.38594 0.070(5) 42949. 0.0743 0.0743
115269.5 2.38618 0.085(6) 31876. 0.0743 0.0743
115281.0 2.38641 0.081(5) 36085. 0.0743 0.0743
115293.0 2.38666 0.082(5) 34269. 0.0743 0.0743
115304.5 2.38690 0.080(5) 33516. 0.0742 0.0742
115316.0 2.38714 0.076(5) 37522. 0.0742 0.0742
115327.5 2.38738 0.086(6) 29557. 0.0742 0.0742
115339.0 2.38762 0.074(5) 37570. 0.0742 0.0742
115350.5 2.38785 0.086(6) 29397. 0.0742 0.0742
115362.0 2.38809 0.076(5) 37273. 0.0742 0.0742
115373.5 2.38833 0.081(6) 31957. 0.0742 0.0742
115385.0 2.38857 0.082(5) 34325. 0.0742 0.0742
115396.5 2.38881 0.085(6) 30699. 0.0742 0.0742
115408.0 2.38904 0.073(5) 39727. 0.0742 0.0742
115419.5 2.38928 0.078(5) 35565. 0.0742 0.0742
115431.0 2.38952 0.085(5) 33565. 0.0742 0.0742
115443.0 2.38977 0.082(5) 34942. 0.0742 0.0742
115454.5 2.39001 0.077(5) 34928. 0.0742 0.0742
115466.0 2.39024 0.069(5) 42620. 0.0742 0.0742
115477.5 2.39048 0.075(5) 37239. 0.0742 0.0742
115489.0 2.39072 0.072(5) 42013. 0.0742 0.0742
115500.5 2.39096 0.081(5) 33899. 0.0742 0.0742
115512.0 2.39120 0.073(5) 41178. 0.0742 0.0742
115523.5 2.39143 0.075(5) 37343. 0.0741 0.0742
115535.0 2.39167 0.072(5) 41616. 0.0741 0.0742
115546.5 2.39191 0.084(6) 31222. 0.0741 0.0741
115558.0 2.39215 0.072(5) 40233. 0.0741 0.0741
115570.0 2.39240 0.066(5) 44328. 0.0741 0.0741
115581.5 2.39264 0.076(5) 34732. 0.0741 0.0741
115593.0 2.39287 0.075(5) 38584. 0.0741 0.0741
115604.5 2.39311 0.090(6) 29255. 0.0741 0.0741
115616.0 2.39335 0.076(5) 38503. 0.0741 0.0741
115627.5 2.39359 0.075(5) 35933. 0.0741 0.0741
115639.0 2.39383 0.073(5) 40107. 0.0741 0.0741
115651.0 2.39407 0.080(5) 35021. 0.0741 0.0741
115662.5 2.39431 0.080(6) 32533. 0.0741 0.0741
115674.0 2.39455 0.067(5) 43776. 0.0741 0.0741
115685.5 2.39479 0.089(6) 28257. 0.0741 0.0741
115697.0 2.39503 0.086(6) 32132. 0.0741 0.0741
115708.5 2.39526 0.089(6) 28374. 0.0741 0.0741
115720.0 2.39550 0.075(5) 37958. 0.0741 0.0741
115731.5 2.39574 0.084(6) 30512. 0.0741 0.0741
115743.0 2.39598 0.083(5) 33383. 0.0741 0.0741
115755.0 2.39623 0.087(6) 31605. 0.0740 0.0741
115766.5 2.39647 0.089(6) 28204. 0.0740 0.0741
115778.0 2.39670 0.075(5) 37275. 0.0740 0.0741
115789.5 2.39694 0.081(6) 31534. 0.0740 0.0740
115801.0 2.39718 0.079(5) 34996. 0.0740 0.0740
115813.0 2.39743 0.074(5) 38910. 0.0740 0.0740
115824.5 2.39767 0.081(6) 32323. 0.0740 0.0740
115836.0 2.39790 0.073(5) 39011. 0.0740 0.0740
115847.5 2.39814 0.079(5) 33382. 0.0740 0.0740
115859.0 2.39838 0.078(5) 37148. 0.0740 0.0740
115870.5 2.39862 0.082(5) 33080. 0.0740 0.0740
115882.0 2.39886 0.078(5) 37053. 0.0740 0.0740
115894.0 2.39910 0.077(5) 36977. 0.0740 0.0740
115905.5 2.39934 0.079(6) 32794. 0.0740 0.0740
115917.0 2.39958 0.080(5) 34867. 0.0740 0.0740
115928.5 2.39982 0.077(5) 34860. 0.0740 0.0740
115940.0 2.40006 0.066(5) 43828. 0.0740 0.0740
115952.0 2.40031 0.070(5) 40389. 0.0740 0.0740
115963.5 2.40054 0.080(6) 32693. 0.0740 0.0740
115975.0 2.40078 0.075(5) 37414. 0.0740 0.0740
115986.5 2.40102 0.070(5) 37726. 0.0740 0.0740
115998.0 2.40126 0.069(5) 39931. 0.0739 0.0740
116010.0 2.40151 0.069(5) 41130. 0.0739 0.0740
116021.5 2.40174 0.077(5) 34367. 0.0739 0.0740
116033.0 2.40198 0.073(5) 40048. 0.0739 0.0740
116044.5 2.40222 0.084(6) 30688. 0.0739 0.0739
116056.0 2.40246 0.071(5) 40354. 0.0739 0.0739
116068.0 2.40271 0.071(5) 40046. 0.0739 0.0739
116079.5 2.40295 0.079(6) 32151. 0.0739 0.0739
116091.0 2.40318 0.068(5) 42163. 0.0739 0.0739
116102.5 2.40342 0.079(6) 32013. 0.0739 0.0739
116114.0 2.40366 0.076(5) 37005. 0.0739 0.0739
116126.0 2.40391 0.077(5) 35858. 0.0739 0.0739
116137.5 2.40415 0.079(5) 33632. 0.0739 0.0739
116149.0 2.40438 0.075(5) 36263. 0.0739 0.0739
116160.5 2.40462 0.080(6) 30989. 0.0739 0.0739
116172.0 2.40486 0.072(5) 37711. 0.0739 0.0739
116184.0 2.40511 0.067(5) 42390. 0.0739 0.0739
116195.5 2.40535 0.078(6) 32117. 0.0739 0.0739
116207.0 2.40558 0.067(5) 41245. 0.0739 0.0739
116219.0 2.40583 0.070(5) 38470. 0.0739 0.0739
116230.5 2.40607 0.075(5) 33389. 0.0739 0.0739
116242.0 2.40631 0.068(5) 40137. 0.0739 0.0739
116253.5 2.40655 0.082(6) 29822. 0.0739 0.0739
116265.0 2.40679 0.073(5) 36707. 0.0738 0.0739
116277.0 2.40703 0.075(5) 35153. 0.0738 0.0739
116288.5 2.40727 0.079(6) 31501. 0.0738 0.0739
116300.0 2.40751 0.075(5) 36136. 0.0738 0.0739
116312.0 2.40776 0.074(5) 35900. 0.0738 0.0739
116323.5 2.40800 0.079(6) 30092. 0.0738 0.0739
116335.0 2.40823 0.076(5) 34031. 0.0738 0.0738
116346.5 2.40847 0.084(6) 29086. 0.0738 0.0738
116358.0 2.40871 0.084(6) 30268. 0.0738 0.0738
116370.0 2.40896 0.081(6) 32055. 0.0738 0.0738
116381.5 2.40920 0.089(6) 27178. 0.0738 0.0738
116393.0 2.40944 0.075(5) 35279. 0.0738 0.0738
116405.0 2.40968 0.069(5) 38108. 0.0738 0.0738
116416.5 2.40992 0.075(6) 32798. 0.0738 0.0738
116428.0 2.41016 0.075(5) 36111. 0.0738 0.0738
116440.0 2.41041 0.086(6) 30710. 0.0738 0.0738
116451.5 2.41065 0.081(6) 30951. 0.0738 0.0738
116463.0 2.41088 0.072(5) 38415. 0.0738 0.0738
116475.0 2.41113 0.074(5) 36299. 0.0738 0.0738
116486.5 2.41137 0.089(6) 26902. 0.0738 0.0738
116498.0 2.41161 0.087(6) 29433. 0.0738 0.0738
116509.5 2.41185 0.091(6) 25163. 0.0738 0.0738
116521.0 2.41208 0.073(5) 35502. 0.0738 0.0738
116533.0 2.41233 0.076(5) 34798. 0.0738 0.0738
116544.5 2.41257 0.089(6) 26676. 0.0737 0.0738
116556.0 2.41281 0.076(5) 33778. 0.0737 0.0738
116568.0 2.41306 0.067(5) 39678. 0.0737 0.0738
116579.5 2.41330 0.081(6) 29391. 0.0737 0.0738
116591.0 2.41353 0.073(5) 36596. 0.0737 0.0738
116603.0 2.41378 0.068(5) 39033. 0.0737 0.0738
116614.5 2.41402 0.081(6) 28800. 0.0737 0.0738
116626.0 2.41426 0.071(5) 37154. 0.0737 0.0738
116638.0 2.41451 0.066(5) 42348. 0.0737 0.0738
116649.5 2.41475 0.081(6) 29553. 0.0737 0.0738
116661.0 2.41498 0.071(5) 37345. 0.0737 0.0738
116673.0 2.41523 0.074(5) 35813. 0.0737 0.0738
116684.5 2.41547 0.079(6) 31137. 0.0737 0.0738
116696.0 2.41571 0.077(5) 33772. 0.0737 0.0738
116708.0 2.41596 0.068(5) 39870. 0.0737 0.0738
116719.5 2.41619 0.077(6) 31572. 0.0737 0.0738
116731.0 2.41643 0.076(5) 34149. 0.0737 0.0738
116743.0 2.41668 0.081(6) 31550. 0.0737 0.0738
116754.5 2.41692 0.082(6) 29093. 0.0737 0.0738
116766.0 2.41716 0.066(5) 41271. 0.0737 0.0738
116778.0 2.41741 0.075(5) 34056. 0.0737 0.0738
116789.5 2.41764 0.083(6) 29258. 0.0737 0.0738
116801.0 2.41788 0.080(6) 32418. 0.0737 0.0738
116813.0 2.41813 0.071(5) 38145. 0.0737 0.0738
116824.5 2.41837 0.084(6) 27559. 0.0737 0.0738
116836.0 2.41861 0.057(5) 49148. 0.0737 0.0738
116848.0 2.41885 0.072(5) 35632. 0.0737 0.0738
116860.0 2.41910 0.076(5) 34098. 0.0736 0.0738
116871.5 2.41934 0.077(6) 31755. 0.0736 0.0738
116883.0 2.41958 0.066(5) 41240. 0.0736 0.0738
116895.0 2.41983 0.072(5) 37827. 0.0736 0.0738
116906.5 2.42007 0.081(6) 30264. 0.0736 0.0738
116918.0 2.42030 0.080(6) 31727. 0.0736 0.0738
116930.0 2.42055 0.074(5) 35574. 0.0736 0.0738
116941.5 2.42079 0.082(6) 28838. 0.0736 0.0738
116953.0 2.42103 0.072(5) 36767. 0.0736 0.0738
116965.0 2.42128 0.072(5) 36007. 0.0736 0.0738
116976.5 2.42151 0.072(5) 34153. 0.0736 0.0738
116988.0 2.42175 0.071(5) 36722. 0.0736 0.0738
117000.0 2.42200 0.064(5) 42507. 0.0736 0.0738
117012.0 2.42225 0.063(5) 43690. 0.0736 0.0739
117023.5 2.42249 0.076(6) 32431. 0.0736 0.0739
117035.0 2.42273 0.073(5) 35645. 0.0736 0.0739
117047.0 2.42297 0.069(5) 38249. 0.0736 0.0739
117058.5 2.42321 0.075(6) 32809. 0.0736 0.0740
117070.0 2.42345 0.076(6) 32952. 0.0736 0.0740
117082.0 2.42370 0.072(5) 35481. 0.0736 0.0740
117093.5 2.42394 0.077(6) 30896. 0.0736 0.0741
117105.0 2.42417 0.075(6) 32799. 0.0736 0.0741
117117.0 2.42442 0.068(5) 38415. 0.0736 0.0742
117129.0 2.42467 0.071(5) 36310. 0.0736 0.0743
117140.5 2.42491 0.078(6) 28823. 0.0736 0.0744
117152.0 2.42515 0.078(6) 30997. 0.0736 0.0746
117164.0 2.42540 0.082(6) 29005. 0.0736 0.0748
117175.5 2.42563 0.077(6) 28209. 0.0736 0.0751
117187.0 2.42587 0.073(6) 32448. 0.0736 0.0754
117199.0 2.42612 0.080(6) 29615. 0.0736 0.0758
117211.0 2.42637 0.076(6) 31403. 0.0736 0.0762
117222.5 2.42661 0.087(6) 24746. 0.0736 0.0767
117234.0 2.42685 0.073(6) 32837. 0.0736 0.0773
117246.0 2.42709 0.071(5) 33353. 0.0736 0.0779
117258.0 2.42734 0.072(5) 34760. 0.0735 0.0784
117269.5 2.42758 0.082(6) 27614. 0.0735 0.0789
117281.0 2.42782 0.069(5) 36157. 0.0735 0.0792
117293.0 2.42807 0.064(5) 38738. 0.0735 0.0794
117304.5 2.42830 0.075(6) 29874. 0.0735 0.0794
117316.0 2.42854 0.074(6) 32763. 0.0735 0.0792
117328.0 2.42879 0.074(5) 33824. 0.0735 0.0789
117340.0 2.42904 0.072(5) 35193. 0.0735 0.0785
117351.5 2.42928 0.069(5) 33563. 0.0735 0.0780
117363.0 2.42952 0.069(5) 36125. 0.0735 0.0776
117375.0 2.42976 0.074(5) 34760. 0.0735 0.0772
117387.0 2.43001 0.079(6) 31643. 0.0735 0.0768
117398.5 2.43025 0.085(6) 26074. 0.0735 0.0764
117410.0 2.43049 0.075(5) 33618. 0.0735 0.0762
117422.0 2.43074 0.076(6) 32730. 0.0735 0.0760
117434.0 2.43099 0.072(5) 35835. 0.0735 0.0759
117445.5 2.43122 0.086(6) 27927. 0.0735 0.0758
117457.0 2.43146 0.079(6) 32132. 0.0735 0.0758
117469.0 2.43171 0.066(5) 40562. 0.0735 0.0757
117481.0 2.43196 0.072(5) 35677. 0.0735 0.0757
117492.5 2.43220 0.083(6) 27732. 0.0735 0.0756
117504.0 2.43243 0.076(5) 33420. 0.0735 0.0755
117516.0 2.43268 0.076(5) 33838. 0.0735 0.0754
117528.0 2.43293 0.075(5) 33859. 0.0735 0.0753
117539.5 2.43317 0.087(6) 25548. 0.0735 0.0751
117551.0 2.43341 0.077(6) 30911. 0.0735 0.0750
117563.0 2.43366 0.072(6) 33026. 0.0735 0.0748
117575.0 2.43390 0.065(5) 37815. 0.0735 0.0746
117586.5 2.43414 0.076(6) 29750. 0.0735 0.0745
117598.0 2.43438 0.077(6) 31093. 0.0735 0.0743
117610.0 2.43463 0.073(5) 33855. 0.0735 0.0742
117622.0 2.43488 0.077(6) 31267. 0.0735 0.0741
117633.5 2.43512 0.087(6) 24660. 0.0735 0.0740
117645.0 2.43535 0.068(5) 36620. 0.0735 0.0740
117657.0 2.43560 0.066(5) 37263. 0.0735 0.0739
117669.0 2.43585 0.075(6) 30996. 0.0735 0.0738
117680.5 2.43609 0.081(6) 27161. 0.0735 0.0738
117692.0 2.43633 0.078(6) 29868. 0.0735 0.0738
117704.0 2.43657 0.074(6) 32631. 0.0735 0.0737
117716.0 2.43682 0.075(6) 30538. 0.0735 0.0737
117728.0 2.43707 0.078(6) 28827. 0.0735 0.0737
117739.5 2.43731 0.088(7) 23586. 0.0735 0.0737
117751.0 2.43755 0.086(6) 25984. 0.0735 0.0737
117763.0 2.43780 0.070(5) 34881. 0.0735 0.0736
117775.0 2.43804 0.079(6) 28590. 0.0735 0.0736
117786.5 2.43828 0.076(6) 28447. 0.0735 0.0736
117798.0 2.43852 0.069(5) 34138. 0.0735 0.0736
117810.0 2.43877 0.071(5) 33138. 0.0735 0.0736
117822.0 2.43902 0.070(5) 33633. 0.0735 0.0736
117834.0 2.43927 0.072(5) 33251. 0.0735 0.0736
117845.5 2.43950 0.078(6) 27051. 0.0735 0.0736
117857.0 2.43974 0.071(6) 32160. 0.0735 0.0736
117869.0 2.43999 0.075(6) 30226. 0.0735 0.0736
117881.0 2.44024 0.070(5) 33773. 0.0735 0.0735
117892.5 2.44048 0.072(6) 31800. 0.0734 0.0735
117904.0 2.44072 0.063(5) 39244. 0.0734 0.0735
117916.0 2.44096 0.071(6) 32471. 0.0734 0.0735
117928.0 2.44121 0.065(5) 36822. 0.0734 0.0735
117940.0 2.44146 0.062(5) 37482. 0.0734 0.0735
117951.5 2.44170 0.075(6) 27792. 0.0734 0.0735
117963.0 2.44194 0.071(5) 33191. 0.0734 0.0735
117975.0 2.44219 0.073(6) 30861. 0.0734 0.0735
117987.0 2.44243 0.071(6) 32341. 0.0734 0.0735
117999.0 2.44268 0.076(6) 29501. 0.0734 0.0735
118010.5 2.44292 0.073(6) 28930. 0.0734 0.0735
118022.0 2.44316 0.068(5) 33536. 0.0734 0.0735
118034.0 2.44341 0.070(6) 32116. 0.0734 0.0735
118046.0 2.44366 0.064(5) 36342. 0.0734 0.0735
118058.0 2.44390 0.068(5) 33266. 0.0734 0.0735
118069.5 2.44414 0.081(6) 24951. 0.0734 0.0735
118081.0 2.44438 0.068(5) 33150. 0.0734 0.0735
118093.0 2.44463 0.072(6) 30267. 0.0734 0.0735
118105.0 2.44488 0.076(6) 28686. 0.0734 0.0735
118117.0 2.44512 0.072(6) 30264. 0.0734 0.0735
118128.5 2.44536 0.074(6) 26453. 0.0734 0.0735
118140.0 2.44560 0.070(6) 29556. 0.0734 0.0735
118152.0 2.44585 0.080(6) 26277. 0.0734 0.0735
118164.0 2.44610 0.083(6) 25521. 0.0734 0.0735
118176.0 2.44635 0.077(6) 27314. 0.0734 0.0735
118188.0 2.44659 0.077(6) 27029. 0.0734 0.0735
118199.5 2.44683 0.081(6) 24006. 0.0734 0.0735
118211.0 2.44707 0.084(6) 23919. 0.0734 0.0735
118223.0 2.44732 0.076(6) 27377. 0.0734 0.0735
118235.0 2.44757 0.084(6) 23787. 0.0734 0.0735
118247.0 2.44782 0.082(6) 25180. 0.0734 0.0735
118258.5 2.44805 0.087(7) 21261. 0.0734 0.0735
118270.0 2.44829 0.070(6) 30623. 0.0734 0.0735
118282.0 2.44854 0.067(6) 31957. 0.0734 0.0735
118294.0 2.44879 0.076(6) 26569. 0.0734 0.0735
118306.0 2.44904 0.070(6) 28189. 0.0734 0.0735
118318.0 2.44929 0.073(6) 26352. 0.0734 0.0735
118329.5 2.44952 0.080(7) 23505. 0.0734 0.0735
118341.0 2.44976 0.072(6) 28366. 0.0734 0.0735
118353.0 2.45001 0.074(6) 26938. 0.0734 0.0735
118365.0 2.45026 0.073(6) 27558. 0.0734 0.0735
118377.0 2.45051 0.081(6) 24058. 0.0734 0.0735
118389.0 2.45076 0.081(6) 24310. 0.0734 0.0735
118400.5 2.45099 0.079(7) 23632. 0.0734 0.0735
118412.0 2.45123 0.067(6) 30805. 0.0734 0.0735
118424.0 2.45148 0.074(6) 26419. 0.0734 0.0735
118436.0 2.45173 0.074(6) 26079. 0.0734 0.0735
118448.0 2.45198 0.067(6) 29263. 0.0734 0.0737
118460.0 2.45223 0.070(6) 28779. 0.0734 0.0737
118472.0 2.45247 0.075(6) 25439. 0.0734 0.0737
118483.5 2.45271 0.083(7) 21012. 0.0734 0.0737
118495.0 2.45295 0.076(6) 26565. 0.0734 0.0737
118507.0 2.45320 0.079(7) 23206. 0.0734 0.0737
118519.0 2.45345 0.077(6) 24471. 0.0734 0.0737
118531.0 2.45370 0.079(7) 23489. 0.0734 0.0737
118543.0 2.45394 0.067(6) 28339. 0.0734 0.0737
118554.5 2.45418 0.075(7) 23542. 0.0734 0.0738
118566.0 2.45442 0.064(6) 32811. 0.0735 0.0738
118578.0 2.45467 0.081(7) 23227. 0.0735 0.0738
118590.0 2.45492 0.080(6) 23898. 0.0735 0.0738
118602.0 2.45517 0.077(6) 24749. 0.0735 0.0739
118614.0 2.45541 0.077(6) 24741. 0.0735 0.0739
118626.0 2.45566 0.065(6) 30491. 0.0735 0.0739
118638.0 2.45591 0.069(6) 28307. 0.0735 0.0739
118649.5 2.45615 0.083(7) 21211. 0.0735 0.0739
118661.0 2.45639 0.072(6) 27246. 0.0735 0.0739
118673.0 2.45663 0.072(6) 26976. 0.0735 0.0739
118685.0 2.45688 0.075(6) 24901. 0.0735 0.0739
118697.0 2.45713 0.075(6) 25426. 0.0735 0.0739
118709.0 2.45738 0.068(6) 29624. 0.0735 0.0739
118721.0 2.45763 0.065(6) 29879. 0.0735 0.0739
118732.5 2.45787 0.077(6) 23702. 0.0735 0.0739
118744.0 2.45810 0.076(6) 25340. 0.0735 0.0739
118756.0 2.45835 0.075(6) 25020. 0.0735 0.0739
118768.0 2.45860 0.072(6) 27519. 0.0735 0.0740
118780.0 2.45885 0.075(6) 25394. 0.0735 0.0740
118792.0 2.45910 0.067(6) 28683. 0.0735 0.0740
118804.0 2.45935 0.072(6) 25482. 0.0735 0.0740
118816.0 2.45960 0.070(6) 25722. 0.0735 0.0740
118827.5 2.45983 0.067(6) 25502. 0.0735 0.0740
118839.0 2.46007 0.072(6) 25693. 0.0735 0.0740
118851.0 2.46032 0.079(7) 22870. 0.0735 0.0740
118863.0 2.46057 0.073(6) 25094. 0.0735 0.0740
118875.0 2.46082 0.079(7) 23344. 0.0735 0.0740
118887.0 2.46107 0.076(6) 24567. 0.0735 0.0740
118899.0 2.46131 0.075(6) 25026. 0.0735 0.0741
118911.0 2.46156 0.069(6) 26526. 0.0735 0.0741
118923.0 2.46181 0.070(6) 25111. 0.0735 0.0741
118934.5 2.46205 0.071(7) 23128. 0.0735 0.0741
118946.0 2.46229 0.074(6) 24830. 0.0735 0.0741
118958.0 2.46254 0.089(7) 18645. 0.0735 0.0741
118970.0 2.46278 0.067(6) 26433. 0.0735 0.0741
118982.0 2.46303 0.068(6) 24979. 0.0735 0.0741
118994.0 2.46328 0.069(6) 25887. 0.0735 0.0741
119006.0 2.46353 0.082(7) 19957. 0.0735 0.0742
119018.0 2.46378 0.072(6) 23868. 0.0735 0.0742
119030.0 2.46403 0.062(6) 27586. 0.0735 0.0742
119042.0 2.46427 0.056(6) 31070. 0.0735 0.0742
119053.5 2.46451 0.075(7) 20661. 0.0735 0.0742
119065.0 2.46475 0.061(6) 28833. 0.0735 0.0742
119077.0 2.46500 0.077(7) 22286. 0.0735 0.0742
119089.0 2.46525 0.084(7) 20602. 0.0735 0.0743
119101.0 2.46550 0.078(7) 20588. 0.0735 0.0743
119113.0 2.46574 0.073(7) 22991. 0.0735 0.0743
119125.0 2.46599 0.081(7) 19920. 0.0736 0.0743
119137.0 2.46624 0.080(7) 19739. 0.0736 0.0743
119149.0 2.46649 0.074(7) 21976. 0.0736 0.0743
119161.0 2.46674 0.079(7) 21125. 0.0736 0.0744
119173.0 2.46699 0.082(7) 19218. 0.0736 0.0744
119185.0 2.46723 0.071(7) 22672. 0.0736 0.0744
119196.5 2.46747 0.078(7) 19291. 0.0736 0.0744
119208.0 2.46771 0.063(6) 28758. 0.0736 0.0744
119220.0 2.46796 0.068(6) 24922. 0.0736 0.0744
119232.0 2.46821 0.071(7) 23026. 0.0736 0.0745
119244.0 2.46846 0.075(7) 22113. 0.0736 0.0745
119256.0 2.46870 0.068(6) 24408. 0.0736 0.0745
119268.0 2.46895 0.058(6) 28024. 0.0736 0.0745
119280.0 2.46920 0.070(7) 22967. 0.0736 0.0745
119292.0 2.46945 0.076(7) 21852. 0.0736 0.0746
119304.0 2.46970 0.080(7) 20492. 0.0736 0.0746
119316.0 2.46995 0.083(7) 19149. 0.0736 0.0746
119328.0 2.47019 0.066(6) 25311. 0.0736 0.0746
119340.0 2.47044 0.071(7) 22168. 0.0736 0.0747
119351.5 2.47068 0.079(7) 18309. 0.0736 0.0747
119363.0 2.47092 0.089(8) 16438. 0.0736 0.0747
119375.0 2.47117 0.072(7) 22454. 0.0736 0.0748
119387.0 2.47142 0.080(7) 19208. 0.0736 0.0748
119399.0 2.47166 0.073(7) 23576. 0.0736 0.0748
119411.0 2.47191 0.069(6) 23747. 0.0736 0.0748
119423.0 2.47216 0.057(6) 28252. 0.0736 0.0749
119435.0 2.47241 0.065(6) 24844. 0.0737 0.0749
119447.0 2.47266 0.074(7) 20790. 0.0737 0.0749
119459.0 2.47291 0.071(7) 21453. 0.0737 0.0750
119471.0 2.47316 0.070(7) 23585. 0.0737 0.0750
119483.0 2.47340 0.088(8) 17008. 0.0737 0.0751
119495.0 2.47365 0.076(7) 19686. 0.0737 0.0751
119507.0 2.47390 0.066(6) 23692. 0.0737 0.0751
119519.0 2.47415 0.084(8) 17323. 0.0737 0.0752
119531.0 2.47440 0.079(7) 18814. 0.0737 0.0752
119543.0 2.47465 0.081(7) 18592. 0.0737 0.0753
119555.0 2.47489 0.078(7) 19507. 0.0737 0.0753
119566.5 2.47513 0.088(8) 15113. 0.0737 0.0754
119578.0 2.47537 0.081(8) 17492. 0.0737 0.0754
119590.0 2.47562 0.074(7) 20136. 0.0737 0.0755
119602.0 2.47587 0.062(6) 23833. 0.0737 0.0755
119614.0 2.47612 0.063(7) 22784. 0.0737 0.0756
119626.0 2.47636 0.078(7) 17952. 0.0737 0.0756
119638.0 2.47661 0.079(7) 18121. 0.0737 0.0757
119650.0 2.47686 0.080(8) 16451. 0.0737 0.0758
119662.0 2.47711 0.080(8) 16158. 0.0737 0.0758
119674.0 2.47736 0.085(8) 15692. 0.0738 0.0759
119686.0 2.47761 0.085(8) 15610. 0.0738 0.0760
119698.0 2.47785 0.078(8) 17149. 0.0738 0.0760
119710.0 2.47810 0.078(8) 17281. 0.0738 0.0761
119722.0 2.47835 0.079(8) 16215. 0.0738 0.0762
119734.0 2.47860 0.079(8) 16639. 0.0738 0.0763
119746.0 2.47885 0.076(8) 16693. 0.0738 0.0764
119758.0 2.47910 0.079(8) 16810. 0.0738 0.0765
119770.0 2.47934 0.088(8) 14582. 0.0738 0.0766
119782.0 2.47959 0.089(8) 15095. 0.0738 0.0767
119794.0 2.47984 0.089(8) 13940. 0.0738 0.0768
119806.0 2.48009 0.086(9) 13811. 0.0738 0.0769
119818.0 2.48034 0.074(7) 17971. 0.0738 0.0770
119830.0 2.48059 0.094(9) 12493. 0.0738 0.0772
119842.0 2.48084 0.082(8) 15250. 0.0738 0.0773
119854.0 2.48108 0.077(8) 16403. 0.0738 0.0774
119866.0 2.48133 0.083(8) 15360. 0.0739 0.0776
119878.0 2.48158 0.086(8) 15637. 0.0739 0.0778
119890.0 2.48183 0.081(8) 15802. 0.0739 0.0779
119902.0 2.48208 0.078(8) 15645. 0.0739 0.0781
119914.0 2.48233 0.077(8) 16669. 0.0739 0.0783
119926.0 2.48257 0.085(8) 14791. 0.0739 0.0785
119938.0 2.48282 0.090(9) 12887. 0.0739 0.0787
119950.0 2.48307 0.079(8) 15278. 0.0739 0.0790
119962.0 2.48332 0.075(8) 16264. 0.0739 0.0792
119974.0 2.48357 0.077(8) 15776. 0.0739 0.0795
119986.0 2.48382 0.084(8) 14487. 0.0739 0.0798
119998.0 2.48406 0.089(9) 13133. 0.0739 0.0801
loop_
_refln_index_h
_refln_index_k
_refln_index_l
_refln_observed_status
_refln_F_squared_meas
_refln_F_squared_calc
_refln_phase_calc
_refln_d_spacing
_gsas_i100_meas
3 1 0 o 1.162 0.324 -180.00 2.43168 0.72
2 2 2 o 0.002 0.001 0.00 2.43065 0.00
1 1 4 o 4.311 1.169 0.00 2.42754 2.81
3 1 2 o 11.624 11.996 -143.77 2.21902 11.56
2 0 4 o 10.505 11.355 -180.00 2.21666 5.41
3 2 1 o 6.487 6.397 87.52 2.09269 5.49
3 0 3 o 90.696 89.495 135.00 2.09137 39.17
1 0 5 o 5.220 4.443 45.00 2.08874 2.35
4 0 0 o 281.773 282.330 0.00 1.92242 47.29
2 2 4 o 287.614 285.813 0.00 1.92037 100.00
4 1 1 o 5.157 4.897 35.53 1.83807 3.06
3 2 3 o 1.650 1.546 -32.38 1.83717 1.00
2 1 5 o 1.654 1.372 -68.44 1.83539 1.03
3 3 0 o 14.168 10.326 0.00 1.81247 2.02
4 0 2 o 0.619 0.419 90.00 1.81204 0.18
3 1 4 o 6.820 3.522 -43.28 1.81075 4.01
4 2 0 o 13.750 13.031 0.00 1.71946 3.37
3 3 2 o 23.772 22.214 0.00 1.71909 5.87
1 1 6 o 14.952 14.399 0.00 1.71617 3.91
4 1 3 o 12.933 13.061 -172.58 1.65765 5.80
3 0 5 o 7.536 7.829 -135.00 1.65634 1.73
4 2 2 o 81.631 81.890 -91.84 1.63912 35.08
2 0 6 o 82.091 83.472 -90.00 1.63659 18.57
4 0 4 o 14.872 19.099 -180.00 1.56853 2.86
5 0 1 o 39.876 37.694 45.00 1.52272 6.85
4 3 1 o 3.043 2.876 -149.68 1.52272 1.04
3 2 5 o 33.076 30.867 36.15 1.52119 11.74
1 0 7 o 0.124 0.105 -45.00 1.51967 0.02
5 1 0 o 4.934 5.525 -180.00 1.50807 0.82
3 3 4 o 4.774 5.966 -180.00 1.50708 0.81
2 2 6 o 0.378 0.333 -180.00 1.50584 0.07
5 1 2 o 5.764 4.062 -74.07 1.45299 1.72
4 2 4 o 2.682 2.027 40.77 1.45232 0.81
3 1 6 o 3.755 2.884 110.90 1.45122 1.17
5 2 1 o 34.569 33.779 -125.87 1.41573 9.51
5 0 3 o 0.026 0.026 -45.00 1.41532 0.00
4 3 3 o 31.255 30.905 -121.75 1.41532 8.68
4 1 5 o 3.902 3.952 -133.21 1.41450 1.10
2 1 7 o 26.115 26.215 -128.92 1.41328 7.61
4 4 0 o 133.633 140.594 0.00 1.35935 8.09
0 0 8 o 123.981 121.135 0.00 1.35646 4.03
5 2 3 o 10.018 12.884 158.01 1.32819 2.28
3 0 7 o 9.936 11.656 135.00 1.32650 1.18
5 3 0 o 9.846 11.450 0.00 1.31877 1.08
4 4 2 o 0.439 0.533 180.00 1.31860 0.05
5 1 4 o 3.411 4.733 40.06 1.31810 0.76
4 0 6 o 0.544 0.997 90.00 1.31728 0.06
1 1 8 o 0.039 0.251 180.00 1.31613 0.00
6 0 0 o 36.797 39.863 0.00 1.28161 1.85
5 3 2 o 34.232 36.676 155.41 1.28146 6.92
3 3 6 o 13.523 13.385 0.00 1.28024 1.41
2 0 8 o 31.383 30.202 -180.00 1.27919 3.36
6 1 1 o 6.882 6.208 66.99 1.25568 1.30
5 0 5 o 4.531 3.183 45.00 1.25482 0.44
4 3 5 o 3.164 2.224 54.88 1.25482 0.61
3 2 7 o 0.124 0.070 -116.17 1.25397 0.02
6 0 2 o 38.339 33.964 90.00 1.24729 3.56
4 2 6 o 41.484 34.663 85.95 1.24617 7.92
6 2 0 o 19.198 17.630 180.00 1.21584 1.63
4 4 4 o 20.368 18.274 -180.00 1.21532 1.76
2 2 8 o 23.136 20.003 180.00 1.21377 2.08
5 4 1 o 5.580 5.620 19.24 1.19364 0.90
6 1 3 o 7.302 7.669 151.74 1.19339 1.18
5 2 5 o 0.683 0.785 -70.86 1.19290 0.11
4 1 7 o 0.589 0.756 -40.95 1.19217 0.10
1 0 9 o 6.613 8.759 45.00 1.19119 0.57
6 2 2 o 0.765 0.445 3.42 1.18642 0.12
5 3 4 o 3.776 2.328 43.14 1.18606 0.60
3 1 8 o 2.999 2.663 95.36 1.18462 0.50
6 0 4 o 12.052 9.417 0.00 1.15881 0.89
5 1 6 o 29.385 24.365 2.44 1.15825 4.41
6 3 1 o 10.441 12.655 171.53 1.13996 1.44
5 4 3 o 6.708 8.238 161.02 1.13975 0.93
2 1 9 o 2.423 3.703 120.85 1.13783 0.36
6 2 4 o 38.127 36.164 -3.66 1.10951 4.89
4 0 8 o 37.469 35.182 0.00 1.10833 2.49
7 0 1 o 0.011 0.010 -135.00 1.09294 0.00
6 3 3 o 2.666 2.482 -98.35 1.09275 0.32
6 1 5 o 8.940 8.762 -75.70 1.09237 1.10
5 0 7 o 8.219 8.906 -45.00 1.09181 0.51
4 3 7 o 7.431 8.053 163.18 1.09181 0.93
3 0 9 o 0.311 0.377 -135.00 1.09106 0.02
5 5 0 o 0.526 2.390 -180.00 1.08748 0.02
7 1 0 o 0.065 0.294 -180.00 1.08748 0.00
4 4 6 o 0.776 3.794 0.00 1.08665 0.05
3 3 8 o 0.029 0.065 -180.00 1.08600 0.00
6 4 0 o 17.206 19.206 0.00 1.06636 0.96
5 5 2 o 11.595 12.834 0.00 1.06628 0.65
7 1 2 o 2.350 2.601 -117.57 1.06628 0.26
5 3 6 o 3.654 3.719 -155.57 1.06558 0.42
4 2 8 o 6.291 5.691 -161.93 1.06497 0.73
1 1 10 o 4.157 3.126 0.00 1.06418 0.25
5 4 5 o 5.411 5.220 170.42 1.05078 0.58
5 2 7 o 50.558 49.979 130.59 1.05028 5.53
7 2 1 o 4.188 4.003 -154.54 1.05129 0.44
7 0 3 o 54.986 52.683 135.00 1.05112 2.93
3 2 9 o 2.355 2.483 173.98 1.04961 0.26
6 4 2 o 24.128 24.947 96.27 1.04635 2.52
6 0 6 o 48.092 47.234 -90.00 1.04569 2.57
2 0 10 o 22.383 19.797 90.00 1.04437 1.25
7 2 3 o 4.135 5.471 -61.11 1.01391 0.39
6 3 5 o 5.194 6.386 39.39 1.01361 0.50
4 1 9 o 3.275 2.838 -20.17 1.01256 0.32
7 3 0 o 4.022 4.349 0.00 1.00970 0.19
7 1 4 o 4.761 5.399 -41.78 1.00940 0.45
5 5 4 o 0.529 0.600 0.00 1.00940 0.02
6 2 6 o 2.491 2.982 105.23 1.00903 0.24
5 1 8 o 1.687 2.228 -133.20 1.00852 0.16
2 2 10 o 0.170 0.293 0.00 1.00785 0.01
7 3 2 o 10.030 9.365 12.27 0.99266 0.88
6 4 4 o 3.893 3.686 -28.05 0.99245 0.34
3 1 10 o 3.149 3.297 9.12 0.99097 0.29
6 5 1 o 1.201 0.810 115.66 0.98053 0.10
7 0 5 o 26.411 18.725 -135.00 0.98012 1.12
6 1 7 o 9.370 7.095 -109.66 0.97972 0.81
1 0 11 o 0.514 0.470 135.00 0.97850 0.02
8 0 0 o 18.173 12.826 0.00 0.96121 0.36
4 4 8 o 21.403 22.098 0.00 0.96018 0.87
7 4 1 o 3.386 3.286 65.45 0.95012 0.26
8 1 1 o 4.595 4.458 42.33 0.95012 0.35
6 5 3 o 14.454 13.876 129.27 0.95000 1.10
7 2 5 o 35.063 33.239 40.18 0.94975 2.68
5 4 7 o 4.002 3.783 -57.65 0.94938 0.31
5 0 9 o 33.878 32.294 45.00 0.94889 1.33
4 3 9 o 5.326 5.077 -25.18 0.94889 0.42
2 1 11 o 2.445 2.313 60.50 0.94827 0.20
8 0 2 o 1.901 1.493 90.00 0.94647 0.07
7 3 4 o 2.320 1.862 176.52 0.94629 0.17
5 3 8 o 8.932 7.958 -71.43 0.94555 0.69
4 0 10 o 2.735 2.535 90.00 0.94501 0.11
8 2 0 o 19.248 15.437 0.00 0.93251 0.68
5 5 6 o 48.667 44.995 0.00 0.93198 1.76
7 1 6 o 4.013 3.710 131.66 0.93198 0.29
6 0 8 o 1.648 1.695 0.00 0.93157 0.06
3 3 10 o 35.426 40.206 0.00 0.93105 1.32
7 4 3 o 24.480 24.063 138.15 0.92226 1.68
8 1 3 o 14.093 13.853 -164.36 0.92226 0.97
6 3 7 o 9.835 9.654 -133.60 0.92170 0.69
5 2 9 o 10.524 10.288 -128.23 0.92125 0.75
3 0 11 o 22.336 21.317 135.00 0.92068 0.81
8 2 2 o 22.632 20.253 -97.78 0.91903 1.53
6 4 6 o 30.915 28.270 -83.99 0.91859 2.12
4 2 10 o 28.833 27.885 -84.16 0.91769 2.04
6 6 0 o 1.213 1.053 180.00 0.90624 0.02
8 0 4 o 38.834 34.310 180.00 0.90602 1.26
6 2 8 o 40.075 36.919 -175.49 0.90538 2.66
0 0 12 o 2.895 2.685 180.00 0.90431 0.02
8 3 1 o 13.610 12.256 -85.54 0.89693 0.85
6 5 5 o 17.939 17.031 -41.42 0.89661 1.13
7 0 7 o 1.598 1.626 -45.00 0.89630 0.05
3 2 11 o 11.276 14.715 -46.25 0.89537 0.74
7 5 0 o 3.880 6.263 0.00 0.89390 0.12
6 6 2 o 0.128 0.208 0.00 0.89385 0.00
1 1 12 o 0.028 0.065 180.00 0.89205 0.00
7 5 2 o 7.455 6.615 -161.85 0.88201 0.44
8 2 4 o 21.348 19.445 13.04 0.88187 1.26
7 3 6 o 4.478 4.244 -35.98 0.88162 0.27
5 1 10 o 1.014 0.975 -51.94 0.88083 0.06
2 0 12 o 10.786 10.078 180.00 0.88029 0.34
8 3 3 o 0.017 0.903 -103.37 0.87338 0.00
8 1 5 o 0.191 3.082 171.74 0.87319 0.01
7 4 5 o 0.242 3.916 -124.12 0.87319 0.01
7 2 7 o 0.298 3.362 142.89 0.87290 0.02
6 1 9 o 0.000 0.740 137.79 0.87251 0.00
4 1 11 o 0.000 1.693 -114.47 0.87204 0.00
8 4 0 o 25.901 29.469 0.00 0.85973 0.70
6 6 4 o 31.568 35.136 0.00 0.85955 0.85
2 2 12 o 25.533 18.885 0.00 0.85808 0.73
9 0 1 o 26.400 15.952 45.00 0.85177 0.69
5 4 9 o 4.621 3.372 34.53 0.85088 0.25
9 1 0 o 0.697 0.561 -180.00 0.84918 0.02
8 4 2 o 1.360 1.093 111.37 0.84914 0.07
7 5 4 o 8.715 7.005 -31.05 0.84900 0.45
8 0 6 o 0.204 0.165 -90.00 0.84878 0.01
5 5 8 o 6.324 5.205 -180.00 0.84847 0.17
7 1 8 o 2.136 1.758 104.21 0.84847 0.11
4 4 10 o 2.174 1.764 -180.00 0.84808 0.06
3 1 12 o 3.545 2.382 -89.21 0.84759 0.19
9 1 2 o 1.595 0.902 -106.73 0.83897 0.08
6 4 8 o 6.426 5.002 99.65 0.83833 0.33
5 3 10 o 4.670 4.051 163.41 0.83795 0.24
7 6 1 o 12.275 12.198 -144.70 0.83161 0.59
9 2 1 o 17.836 17.724 -139.07 0.83161 0.85
9 0 3 o 19.198 19.049 135.00 0.83153 0.46
8 3 5 o 0.246 0.243 -36.63 0.83136 0.01
6 5 7 o 6.331 6.213 -141.39 0.83111 0.31
6 3 9 o 9.680 9.470 155.71 0.83078 0.48
4 3 11 o 7.775 7.841 -130.80 0.83037 0.39
5 0 11 o 0.266 0.269 -45.00 0.83037 0.01
1 0 13 o 6.229 6.928 -135.00 0.82987 0.16
8 2 6 o 8.715 8.728 89.60 0.82883 0.42
6 0 10 o 7.567 5.980 90.00 0.82817 0.19
_journal_paper_doi 10.1021/cm062864a

#
# Data extracted using the FINDSYM utility follows
#
 
_audit_creation_method FINDSYM
 
_symmetry_space_group_name_H-M "I 41 2 2"
_symmetry_space_group_name_Hall 'I 4bw 2bw'
_[local]_omdb_cod_original_Hall 'I 4bw 2bw'
_symmetry_Int_Tables_number 98
 
_cell_length_a    7.68966
_cell_length_b    7.68966
_cell_length_c    10.85169
_cell_angle_alpha 90.00000
_cell_angle_beta  90.00000
_cell_angle_gamma 90.00000
 
loop_
_space_group_symop_id
_space_group_symop_operation_xyz
1 x,y,z
2 x,-y+1/2,-z+1/4
3 -x,y+1/2,-z+1/4
4 -x,-y,z
5 -y,-x,-z
6 -y,x+1/2,z+1/4
7 y,-x+1/2,z+1/4
8 y,x,-z
9 x+1/2,y+1/2,z+1/2
10 x+1/2,-y,-z+3/4
11 -x+1/2,y,-z+3/4
12 -x+1/2,-y+1/2,z+1/2
13 -y+1/2,-x+1/2,-z+1/2
14 -y+1/2,x,z+3/4
15 y+1/2,-x,z+3/4
16 y+1/2,x+1/2,-z+1/2
 
loop_
_atom_site_label
_atom_site_type_symbol
_atom_site_symmetry_multiplicity
_atom_site_Wyckoff_label
_atom_site_fract_x
_atom_site_fract_y
_atom_site_fract_z
_atom_site_occupancy
Bi1 Bi 16 g 0.03660 0.22150 0.14764 0.5
Hf1 Hf 8 f 0.50224 0.25000 0.12500 1.0
O1 O 4 a 0.00000 0.00000 0.00000 1.0
O2 O 8 c 0.00000 0.00000 0.30007 1.0
O3 O 8 e 0.69650 0.30350 0.00000 1.0
O4 O 8 d 0.69970 0.69970 0.00000 1.0
 

